* NGSPICE file created from adder.ext - technology: sky130A

.subckt sky130_fd_sc_hd__a21o_1 A1 A2 B1 VGND VNB VPB VPWR X a_384_47# a_81_21# a_299_297#
X0 a_81_21# B1 VGND VNB sky130_fd_pr__nfet_01v8 ad=0.0894 pd=0.925 as=0.229 ps=1.57 w=0.65 l=0.15
**devattr s=10270,288 d=3575,185
X1 a_299_297# B1 a_81_21# VPB sky130_fd_pr__pfet_01v8_hvt ad=0.18 pd=1.69 as=0.26 ps=2.52 w=1 l=0.15
**devattr s=10400,504 d=5500,255
X2 VPWR a_81_21# X VPB sky130_fd_pr__pfet_01v8_hvt ad=0.18 pd=1.69 as=0.26 ps=2.52 w=1 l=0.15
**devattr s=10400,504 d=10400,504
X3 VPWR A1 a_299_297# VPB sky130_fd_pr__pfet_01v8_hvt ad=0.18 pd=1.69 as=0.18 ps=1.69 w=1 l=0.15
**devattr s=5500,255 d=5600,256
X4 VGND a_81_21# X VNB sky130_fd_pr__nfet_01v8 ad=0.229 pd=1.57 as=0.169 ps=1.82 w=0.65 l=0.15
**devattr s=6760,364 d=10270,288
X5 VGND A2 a_384_47# VNB sky130_fd_pr__nfet_01v8 ad=0.229 pd=1.57 as=0.091 ps=0.93 w=0.65 l=0.15
**devattr s=3640,186 d=6890,366
X6 a_299_297# A2 VPWR VPB sky130_fd_pr__pfet_01v8_hvt ad=0.18 pd=1.69 as=0.18 ps=1.69 w=1 l=0.15
**devattr s=5600,256 d=10600,506
X7 a_384_47# A1 a_81_21# VNB sky130_fd_pr__nfet_01v8 ad=0.091 pd=0.93 as=0.0894 ps=0.925 w=0.65 l=0.15
**devattr s=3575,185 d=3640,186
C0 VGND a_299_297# 0.00772f
C1 B1 X 3.04e-20
C2 VPWR VGND 0.0579f
C3 A2 VPB 0.0373f
C4 VPB A1 0.0264f
C5 A2 a_81_21# 7.47e-19
C6 B1 a_299_297# 0.00863f
C7 a_81_21# A1 0.0568f
C8 a_81_21# a_384_47# 0.00138f
C9 VPWR B1 0.0196f
C10 A2 a_299_297# 0.0468f
C11 a_81_21# VPB 0.0593f
C12 a_299_297# A1 0.0585f
C13 VPWR A2 0.0201f
C14 a_384_47# a_299_297# 1.48e-19
C15 VPWR A1 0.0209f
C16 B1 VGND 0.0181f
C17 X VPB 0.0108f
C18 VPWR a_384_47# 4.08e-19
C19 X a_81_21# 0.112f
C20 a_299_297# VPB 0.0111f
C21 A2 VGND 0.0495f
C22 VPWR VPB 0.068f
C23 a_81_21# a_299_297# 0.0821f
C24 VGND A1 0.0786f
C25 VGND a_384_47# 0.00366f
C26 VPWR a_81_21# 0.146f
C27 VPWR X 0.0847f
C28 B1 A1 0.0817f
C29 VGND VPB 0.00713f
C30 VPWR a_299_297# 0.202f
C31 VGND a_81_21# 0.173f
C32 A2 A1 0.0921f
C33 X VGND 0.0512f
C34 B1 VPB 0.0387f
C35 a_384_47# A1 0.00884f
C36 B1 a_81_21# 0.148f
C37 VGND VNB 0.364f
C38 VPWR VNB 0.286f
C39 X VNB 0.0945f
C40 A2 VNB 0.144f
C41 A1 VNB 0.0996f
C42 B1 VNB 0.109f
C43 VPB VNB 0.605f
C44 a_299_297# VNB 0.0348f
C45 a_81_21# VNB 0.147f
.ends

.subckt sky130_fd_sc_hd__and4_1 A B C D VGND VNB VPB VPWR X a_109_47# a_197_47# a_303_47#
+ a_27_47#
X0 a_27_47# C VPWR VPB sky130_fd_pr__pfet_01v8_hvt ad=0.0662 pd=0.735 as=0.139 ps=0.987 w=0.42 l=0.15
**devattr s=3108,158 d=2352,140
X1 a_197_47# B a_109_47# VNB sky130_fd_pr__nfet_01v8 ad=0.0798 pd=0.8 as=0.0609 ps=0.71 w=0.42 l=0.15
**devattr s=2436,142 d=3192,160
X2 X a_27_47# VPWR VPB sky130_fd_pr__pfet_01v8_hvt ad=0.26 pd=2.52 as=0.332 ps=2.35 w=1 l=0.15
**devattr s=12498,336 d=10400,504
X3 a_303_47# C a_197_47# VNB sky130_fd_pr__nfet_01v8 ad=0.0693 pd=0.75 as=0.0798 ps=0.8 w=0.42 l=0.15
**devattr s=3192,160 d=2772,150
X4 a_27_47# A VPWR VPB sky130_fd_pr__pfet_01v8_hvt ad=0.0662 pd=0.735 as=0.139 ps=0.987 w=0.42 l=0.15
**devattr s=4368,272 d=2940,154
X5 VPWR D a_27_47# VPB sky130_fd_pr__pfet_01v8_hvt ad=0.139 pd=0.987 as=0.0662 ps=0.735 w=0.42 l=0.15
**devattr s=2352,140 d=12498,336
X6 VGND D a_303_47# VNB sky130_fd_pr__nfet_01v8 ad=0.154 pd=1.04 as=0.0693 ps=0.75 w=0.42 l=0.15
**devattr s=2772,150 d=7851,266
X7 VPWR B a_27_47# VPB sky130_fd_pr__pfet_01v8_hvt ad=0.139 pd=0.987 as=0.0662 ps=0.735 w=0.42 l=0.15
**devattr s=2940,154 d=3108,158
X8 X a_27_47# VGND VNB sky130_fd_pr__nfet_01v8 ad=0.169 pd=1.82 as=0.238 ps=1.62 w=0.65 l=0.15
**devattr s=7851,266 d=6760,364
X9 a_109_47# A a_27_47# VNB sky130_fd_pr__nfet_01v8 ad=0.0609 pd=0.71 as=0.109 ps=1.36 w=0.42 l=0.15
**devattr s=4368,272 d=2436,142
C0 VPB VPWR 0.077f
C1 a_109_47# VGND 0.00223f
C2 D a_27_47# 0.107f
C3 a_303_47# a_27_47# 0.00119f
C4 C D 0.18f
C5 VPB A 0.0907f
C6 a_27_47# a_197_47# 0.00167f
C7 a_303_47# C 0.00527f
C8 B a_27_47# 0.13f
C9 VGND D 0.0898f
C10 a_109_47# VPWR 4.66e-19
C11 C a_197_47# 0.00123f
C12 a_303_47# VGND 0.00381f
C13 C B 0.161f
C14 X D 0.00746f
C15 VGND a_197_47# 0.00387f
C16 B VGND 0.0453f
C17 VPWR D 0.0207f
C18 a_303_47# VPWR 4.83e-19
C19 C a_27_47# 0.0516f
C20 VPWR a_197_47# 5.24e-19
C21 B VPWR 0.0231f
C22 VGND a_27_47# 0.132f
C23 C VGND 0.0408f
C24 A B 0.0839f
C25 X a_27_47# 0.0754f
C26 VPB D 0.0782f
C27 VPWR a_27_47# 0.326f
C28 X VGND 0.0903f
C29 C VPWR 0.021f
C30 A a_27_47# 0.153f
C31 VPB B 0.0643f
C32 VPWR VGND 0.0662f
C33 X VPWR 0.0945f
C34 A VGND 0.0151f
C35 a_109_47# B 0.00153f
C36 VPB a_27_47# 0.082f
C37 a_303_47# D 0.00119f
C38 VPB C 0.0609f
C39 A VPWR 0.044f
C40 VPB VGND 0.00852f
C41 a_109_47# a_27_47# 0.00578f
C42 B a_197_47# 0.00623f
C43 VPB X 0.0111f
C44 a_109_47# C 1.72e-20
C45 VGND VNB 0.393f
C46 X VNB 0.0933f
C47 VPWR VNB 0.335f
C48 D VNB 0.13f
C49 C VNB 0.11f
C50 B VNB 0.112f
C51 A VNB 0.221f
C52 VPB VNB 0.693f
C53 a_27_47# VNB 0.175f
.ends

.subckt adder_2 CI P1 G1 P2 G2 P3 G3 P4 G4 CO VDD SUB sky130_fd_sc_hd__a21o_1_0/a_81_21#
+ sky130_fd_sc_hd__and4_1_0/a_27_47# sky130_fd_sc_hd__a21o_1_0/a_384_47# sky130_fd_sc_hd__a21o_1_1/X
+ sky130_fd_sc_hd__a21o_1_1/a_81_21# sky130_fd_sc_hd__a21o_1_0/a_299_297# sky130_fd_sc_hd__a21o_1_1/a_299_297#
+ sky130_fd_sc_hd__a21o_1_1/a_384_47# sky130_fd_sc_hd__a21o_1_2/a_299_297# sky130_fd_sc_hd__and4_1_0/a_109_47#
+ sky130_fd_sc_hd__a21o_1_2/X sky130_fd_sc_hd__a21o_1_0/X sky130_fd_sc_hd__a21o_1_3/a_299_297#
+ sky130_fd_sc_hd__and4_1_0/X sky130_fd_sc_hd__a21o_1_2/a_81_21# sky130_fd_sc_hd__and4_1_0/a_197_47#
+ sky130_fd_sc_hd__a21o_1_2/a_384_47# sky130_fd_sc_hd__and4_1_0/a_303_47# sky130_fd_sc_hd__a21o_1_3/a_81_21#
+ sky130_fd_sc_hd__a21o_1_3/a_384_47#
Xsky130_fd_sc_hd__a21o_1_0 G1 P2 G2 SUB SUB VDD VDD sky130_fd_sc_hd__a21o_1_0/X sky130_fd_sc_hd__a21o_1_0/a_384_47#
+ sky130_fd_sc_hd__a21o_1_0/a_81_21# sky130_fd_sc_hd__a21o_1_0/a_299_297# sky130_fd_sc_hd__a21o_1
Xsky130_fd_sc_hd__a21o_1_1 sky130_fd_sc_hd__a21o_1_0/X P3 G3 SUB SUB VDD VDD sky130_fd_sc_hd__a21o_1_1/X
+ sky130_fd_sc_hd__a21o_1_1/a_384_47# sky130_fd_sc_hd__a21o_1_1/a_81_21# sky130_fd_sc_hd__a21o_1_1/a_299_297#
+ sky130_fd_sc_hd__a21o_1
Xsky130_fd_sc_hd__a21o_1_2 sky130_fd_sc_hd__a21o_1_1/X P4 G4 SUB SUB VDD VDD sky130_fd_sc_hd__a21o_1_2/X
+ sky130_fd_sc_hd__a21o_1_2/a_384_47# sky130_fd_sc_hd__a21o_1_2/a_81_21# sky130_fd_sc_hd__a21o_1_2/a_299_297#
+ sky130_fd_sc_hd__a21o_1
Xsky130_fd_sc_hd__a21o_1_3 sky130_fd_sc_hd__and4_1_0/X CI sky130_fd_sc_hd__a21o_1_2/X
+ SUB SUB VDD VDD CO sky130_fd_sc_hd__a21o_1_3/a_384_47# sky130_fd_sc_hd__a21o_1_3/a_81_21#
+ sky130_fd_sc_hd__a21o_1_3/a_299_297# sky130_fd_sc_hd__a21o_1
Xsky130_fd_sc_hd__and4_1_0 P4 P2 P3 P1 SUB SUB VDD VDD sky130_fd_sc_hd__and4_1_0/X
+ sky130_fd_sc_hd__and4_1_0/a_109_47# sky130_fd_sc_hd__and4_1_0/a_197_47# sky130_fd_sc_hd__and4_1_0/a_303_47#
+ sky130_fd_sc_hd__and4_1_0/a_27_47# sky130_fd_sc_hd__and4_1
C0 sky130_fd_sc_hd__and4_1_0/X VDD 0.0202f
C1 P4 G4 0.02f
C2 sky130_fd_sc_hd__a21o_1_1/X G4 0.0897f
C3 sky130_fd_sc_hd__and4_1_0/a_303_47# sky130_fd_sc_hd__a21o_1_0/X 5.18e-21
C4 sky130_fd_sc_hd__a21o_1_0/X VDD 0.0377f
C5 sky130_fd_sc_hd__and4_1_0/a_197_47# P2 2.63e-19
C6 P2 CO 4.84e-19
C7 CI sky130_fd_sc_hd__a21o_1_2/X 0.00156f
C8 sky130_fd_sc_hd__and4_1_0/a_197_47# sky130_fd_sc_hd__and4_1_0/X 1.78e-19
C9 sky130_fd_sc_hd__and4_1_0/X CO 0.13f
C10 VDD sky130_fd_sc_hd__a21o_1_0/a_81_21# -0.00151f
C11 sky130_fd_sc_hd__a21o_1_2/a_299_297# P3 0.00159f
C12 VDD sky130_fd_sc_hd__a21o_1_2/a_384_47# -4.08e-19
C13 sky130_fd_sc_hd__and4_1_0/a_197_47# sky130_fd_sc_hd__a21o_1_0/X 5.93e-21
C14 sky130_fd_sc_hd__a21o_1_1/a_81_21# VDD -0.00647f
C15 sky130_fd_sc_hd__a21o_1_2/X sky130_fd_sc_hd__a21o_1_2/a_299_297# 0.0335f
C16 G3 VDD -6.71e-19
C17 sky130_fd_sc_hd__a21o_1_3/a_81_21# VDD -0.0123f
C18 SUB sky130_fd_sc_hd__a21o_1_1/a_384_47# -1.89e-19
C19 CI sky130_fd_sc_hd__a21o_1_3/a_299_297# 0.00978f
C20 P2 P1 0.0215f
C21 sky130_fd_sc_hd__and4_1_0/a_303_47# P3 4.7e-19
C22 P4 sky130_fd_sc_hd__a21o_1_2/a_299_297# 0.0108f
C23 sky130_fd_sc_hd__and4_1_0/a_303_47# sky130_fd_sc_hd__a21o_1_2/X 4.26e-19
C24 sky130_fd_sc_hd__a21o_1_1/X sky130_fd_sc_hd__a21o_1_2/a_299_297# 0.0193f
C25 P2 sky130_fd_sc_hd__a21o_1_1/a_299_297# 0.0566f
C26 VDD P3 0.0048f
C27 sky130_fd_sc_hd__and4_1_0/X P1 0.00732f
C28 sky130_fd_sc_hd__a21o_1_2/X VDD 1.21f
C29 P2 sky130_fd_sc_hd__a21o_1_2/a_81_21# 0.0301f
C30 sky130_fd_sc_hd__a21o_1_0/X sky130_fd_sc_hd__a21o_1_0/a_384_47# 0.00135f
C31 sky130_fd_sc_hd__and4_1_0/X sky130_fd_sc_hd__a21o_1_2/a_81_21# 4.69e-20
C32 P4 VDD 0.0594f
C33 sky130_fd_sc_hd__a21o_1_1/X VDD 0.0255f
C34 P2 sky130_fd_sc_hd__a21o_1_0/a_299_297# 0.0456f
C35 VDD G2 0.0175f
C36 sky130_fd_sc_hd__a21o_1_0/X P1 1.23e-20
C37 SUB sky130_fd_sc_hd__and4_1_0/a_109_47# -6.28e-20
C38 VDD G1 0.0196f
C39 VDD sky130_fd_sc_hd__a21o_1_3/a_299_297# -5.68e-32
C40 sky130_fd_sc_hd__a21o_1_0/X sky130_fd_sc_hd__a21o_1_2/a_81_21# 1.2e-19
C41 sky130_fd_sc_hd__a21o_1_3/a_81_21# CO 0.00936f
C42 sky130_fd_sc_hd__and4_1_0/a_27_47# VDD -0.0199f
C43 sky130_fd_sc_hd__a21o_1_0/X sky130_fd_sc_hd__a21o_1_0/a_299_297# 0.00259f
C44 sky130_fd_sc_hd__and4_1_0/a_197_47# P3 0.0016f
C45 CO P3 0.0012f
C46 G4 VDD -0.00221f
C47 sky130_fd_sc_hd__a21o_1_2/X CO 0.0504f
C48 G3 P1 3.23e-21
C49 sky130_fd_sc_hd__a21o_1_3/a_81_21# P1 0.00196f
C50 P1 P3 0.0581f
C51 sky130_fd_sc_hd__a21o_1_2/X P1 0.0247f
C52 P3 sky130_fd_sc_hd__a21o_1_1/a_299_297# 0.00415f
C53 sky130_fd_sc_hd__a21o_1_1/X sky130_fd_sc_hd__a21o_1_0/a_384_47# 1.32e-20
C54 sky130_fd_sc_hd__a21o_1_2/X sky130_fd_sc_hd__a21o_1_1/a_299_297# 0.0334f
C55 sky130_fd_sc_hd__and4_1_0/a_27_47# CO 0.00246f
C56 sky130_fd_sc_hd__a21o_1_2/a_81_21# P3 0.0706f
C57 P4 P1 4.35e-19
C58 sky130_fd_sc_hd__a21o_1_1/X P1 4.83e-20
C59 sky130_fd_sc_hd__a21o_1_2/X sky130_fd_sc_hd__a21o_1_2/a_81_21# 0.02f
C60 sky130_fd_sc_hd__a21o_1_0/a_384_47# G1 4.61e-19
C61 sky130_fd_sc_hd__a21o_1_1/X sky130_fd_sc_hd__a21o_1_1/a_299_297# 0.0338f
C62 P4 sky130_fd_sc_hd__a21o_1_1/a_299_297# 1.23e-19
C63 sky130_fd_sc_hd__and4_1_0/X sky130_fd_sc_hd__a21o_1_1/a_384_47# 1.46e-21
C64 CI VDD 0.00996f
C65 sky130_fd_sc_hd__a21o_1_2/X sky130_fd_sc_hd__a21o_1_0/a_299_297# 1.65e-19
C66 VDD sky130_fd_sc_hd__a21o_1_3/a_384_47# -1.62e-19
C67 sky130_fd_sc_hd__a21o_1_1/X sky130_fd_sc_hd__a21o_1_2/a_81_21# 0.0421f
C68 P4 sky130_fd_sc_hd__a21o_1_2/a_81_21# 0.00149f
C69 P1 sky130_fd_sc_hd__a21o_1_3/a_299_297# 2.61e-19
C70 sky130_fd_sc_hd__a21o_1_1/X sky130_fd_sc_hd__a21o_1_0/a_299_297# 0.0315f
C71 sky130_fd_sc_hd__and4_1_0/a_27_47# P1 0.019f
C72 sky130_fd_sc_hd__a21o_1_1/a_384_47# sky130_fd_sc_hd__a21o_1_0/X 6.97e-19
C73 VDD sky130_fd_sc_hd__a21o_1_2/a_299_297# 0.0196f
C74 sky130_fd_sc_hd__and4_1_0/a_109_47# P2 2.77e-19
C75 G1 sky130_fd_sc_hd__a21o_1_0/a_299_297# 0.0137f
C76 G4 P1 1.7e-20
C77 SUB P2 0.00318f
C78 sky130_fd_sc_hd__and4_1_0/a_109_47# sky130_fd_sc_hd__and4_1_0/X 1.62e-19
C79 sky130_fd_sc_hd__and4_1_0/a_303_47# VDD -4.83e-19
C80 SUB sky130_fd_sc_hd__and4_1_0/X 0.251f
C81 G4 sky130_fd_sc_hd__a21o_1_2/a_81_21# 0.0188f
C82 sky130_fd_sc_hd__and4_1_0/a_109_47# sky130_fd_sc_hd__a21o_1_0/X 9.17e-21
C83 SUB sky130_fd_sc_hd__a21o_1_0/X 0.461f
C84 sky130_fd_sc_hd__a21o_1_1/a_384_47# P3 7.45e-20
C85 CI P1 2.89e-19
C86 sky130_fd_sc_hd__a21o_1_2/X sky130_fd_sc_hd__a21o_1_1/a_384_47# 1.32e-20
C87 sky130_fd_sc_hd__and4_1_0/a_197_47# VDD -5.24e-19
C88 SUB sky130_fd_sc_hd__a21o_1_0/a_81_21# -0.0202f
C89 VDD CO -0.00363f
C90 sky130_fd_sc_hd__a21o_1_1/X sky130_fd_sc_hd__a21o_1_1/a_384_47# 4.81e-19
C91 SUB sky130_fd_sc_hd__a21o_1_2/a_384_47# -2.27e-19
C92 SUB sky130_fd_sc_hd__a21o_1_1/a_81_21# -0.0191f
C93 G3 SUB 6.81e-19
C94 SUB sky130_fd_sc_hd__a21o_1_3/a_81_21# -0.0199f
C95 sky130_fd_sc_hd__and4_1_0/a_109_47# P3 0.00143f
C96 VDD sky130_fd_sc_hd__a21o_1_0/a_384_47# -3.87e-19
C97 SUB P3 0.543f
C98 VDD P1 0.00652f
C99 SUB sky130_fd_sc_hd__a21o_1_2/X 0.0224f
C100 VDD sky130_fd_sc_hd__a21o_1_1/a_299_297# -0.00193f
C101 SUB P4 0.00496f
C102 sky130_fd_sc_hd__a21o_1_1/X SUB 0.0139f
C103 SUB G2 0.00126f
C104 VDD sky130_fd_sc_hd__a21o_1_2/a_81_21# -0.0132f
C105 VDD sky130_fd_sc_hd__a21o_1_0/a_299_297# 0.00347f
C106 SUB G1 -0.00488f
C107 sky130_fd_sc_hd__and4_1_0/X P2 0.00135f
C108 SUB sky130_fd_sc_hd__a21o_1_3/a_299_297# -0.00378f
C109 SUB sky130_fd_sc_hd__and4_1_0/a_27_47# 0.00805f
C110 sky130_fd_sc_hd__a21o_1_0/X P2 0.0752f
C111 SUB G4 8.25e-19
C112 sky130_fd_sc_hd__and4_1_0/X sky130_fd_sc_hd__a21o_1_0/X 7.95e-21
C113 CO P1 0.00943f
C114 P2 sky130_fd_sc_hd__a21o_1_0/a_81_21# 0.00281f
C115 P2 sky130_fd_sc_hd__a21o_1_2/a_384_47# 2.47e-20
C116 sky130_fd_sc_hd__a21o_1_1/a_81_21# P2 0.0526f
C117 G3 P2 0.0287f
C118 sky130_fd_sc_hd__a21o_1_3/a_81_21# P2 6.76e-19
C119 sky130_fd_sc_hd__and4_1_0/X sky130_fd_sc_hd__a21o_1_2/a_384_47# 1.23e-20
C120 P1 sky130_fd_sc_hd__a21o_1_2/a_81_21# 3.15e-20
C121 sky130_fd_sc_hd__a21o_1_3/a_81_21# sky130_fd_sc_hd__and4_1_0/X 0.0697f
C122 sky130_fd_sc_hd__a21o_1_0/X sky130_fd_sc_hd__a21o_1_0/a_81_21# 0.059f
C123 CI SUB 0.02f
C124 sky130_fd_sc_hd__a21o_1_1/a_384_47# VDD -4.08e-19
C125 P2 P3 0.155f
C126 SUB sky130_fd_sc_hd__a21o_1_3/a_384_47# -5.85e-20
C127 sky130_fd_sc_hd__a21o_1_2/X P2 0.455f
C128 sky130_fd_sc_hd__and4_1_0/X P3 0.00586f
C129 sky130_fd_sc_hd__a21o_1_0/X sky130_fd_sc_hd__a21o_1_2/a_384_47# 1.12e-20
C130 sky130_fd_sc_hd__a21o_1_1/a_81_21# sky130_fd_sc_hd__a21o_1_0/X 0.0631f
C131 sky130_fd_sc_hd__a21o_1_2/X sky130_fd_sc_hd__and4_1_0/X 0.132f
C132 G3 sky130_fd_sc_hd__a21o_1_0/X 0.0894f
C133 P4 P2 0.197f
C134 sky130_fd_sc_hd__a21o_1_1/X P2 0.627f
C135 P2 G2 0.00123f
C136 SUB sky130_fd_sc_hd__a21o_1_2/a_299_297# -0.00449f
C137 P4 sky130_fd_sc_hd__and4_1_0/X 4.68e-20
C138 sky130_fd_sc_hd__a21o_1_1/X sky130_fd_sc_hd__and4_1_0/X 5.37e-20
C139 sky130_fd_sc_hd__a21o_1_0/X P3 0.0694f
C140 P2 G1 0.0935f
C141 sky130_fd_sc_hd__a21o_1_2/X sky130_fd_sc_hd__a21o_1_0/X 0.00439f
C142 sky130_fd_sc_hd__and4_1_0/a_109_47# VDD -4.66e-19
C143 SUB sky130_fd_sc_hd__and4_1_0/a_303_47# 3.12e-20
C144 SUB VDD -0.275f
C145 sky130_fd_sc_hd__and4_1_0/X sky130_fd_sc_hd__a21o_1_3/a_299_297# 0.00642f
C146 P4 sky130_fd_sc_hd__a21o_1_0/X 5.9e-20
C147 sky130_fd_sc_hd__a21o_1_1/X sky130_fd_sc_hd__a21o_1_0/X 0.121f
C148 sky130_fd_sc_hd__and4_1_0/a_27_47# P2 0.0709f
C149 sky130_fd_sc_hd__a21o_1_0/X G2 0.0575f
C150 sky130_fd_sc_hd__and4_1_0/a_27_47# sky130_fd_sc_hd__and4_1_0/X 0.00169f
C151 G4 P2 0.00574f
C152 sky130_fd_sc_hd__a21o_1_0/X G1 0.0691f
C153 sky130_fd_sc_hd__and4_1_0/X G4 1.98e-20
C154 G3 sky130_fd_sc_hd__a21o_1_1/a_81_21# 0.023f
C155 sky130_fd_sc_hd__a21o_1_2/X sky130_fd_sc_hd__a21o_1_0/a_81_21# 8.44e-20
C156 sky130_fd_sc_hd__and4_1_0/a_27_47# sky130_fd_sc_hd__a21o_1_0/X 2.06e-20
C157 sky130_fd_sc_hd__a21o_1_2/a_384_47# P3 0.0013f
C158 sky130_fd_sc_hd__a21o_1_1/X sky130_fd_sc_hd__a21o_1_0/a_81_21# 0.0018f
C159 sky130_fd_sc_hd__a21o_1_0/a_81_21# G2 0.0401f
C160 G3 P3 0.0176f
C161 sky130_fd_sc_hd__a21o_1_3/a_81_21# P3 2.3e-19
C162 G4 sky130_fd_sc_hd__a21o_1_0/X 3.47e-20
C163 sky130_fd_sc_hd__a21o_1_1/a_81_21# sky130_fd_sc_hd__a21o_1_2/X 0.00223f
C164 G3 sky130_fd_sc_hd__a21o_1_2/X 4.15e-19
C165 sky130_fd_sc_hd__a21o_1_3/a_81_21# sky130_fd_sc_hd__a21o_1_2/X 0.07f
C166 SUB sky130_fd_sc_hd__and4_1_0/a_197_47# -4.52e-20
C167 G1 sky130_fd_sc_hd__a21o_1_0/a_81_21# 0.00416f
C168 P4 sky130_fd_sc_hd__a21o_1_2/a_384_47# 6.19e-21
C169 sky130_fd_sc_hd__a21o_1_1/X sky130_fd_sc_hd__a21o_1_2/a_384_47# 7.94e-20
C170 SUB CO -0.00689f
C171 sky130_fd_sc_hd__a21o_1_1/a_81_21# P4 1.01e-19
C172 sky130_fd_sc_hd__a21o_1_1/X sky130_fd_sc_hd__a21o_1_1/a_81_21# 0.0447f
C173 sky130_fd_sc_hd__a21o_1_2/X P3 0.0674f
C174 sky130_fd_sc_hd__a21o_1_1/X G3 0.0595f
C175 P4 P3 0.2f
C176 sky130_fd_sc_hd__a21o_1_1/X P3 0.185f
C177 CI P2 2.97e-20
C178 P4 sky130_fd_sc_hd__a21o_1_2/X 0.00977f
C179 sky130_fd_sc_hd__a21o_1_1/X sky130_fd_sc_hd__a21o_1_2/X 0.0261f
C180 sky130_fd_sc_hd__a21o_1_2/X G2 5.09e-20
C181 SUB sky130_fd_sc_hd__a21o_1_0/a_384_47# -2.71e-19
C182 CI sky130_fd_sc_hd__and4_1_0/X 0.0308f
C183 sky130_fd_sc_hd__and4_1_0/X sky130_fd_sc_hd__a21o_1_3/a_384_47# 7.24e-19
C184 SUB P1 0.0237f
C185 sky130_fd_sc_hd__and4_1_0/a_27_47# sky130_fd_sc_hd__a21o_1_3/a_81_21# 0.0108f
C186 sky130_fd_sc_hd__a21o_1_1/X P4 0.0428f
C187 sky130_fd_sc_hd__a21o_1_2/X G1 4.98e-20
C188 sky130_fd_sc_hd__a21o_1_1/X G2 1.59e-19
C189 sky130_fd_sc_hd__a21o_1_2/X sky130_fd_sc_hd__a21o_1_3/a_299_297# 0.0173f
C190 SUB sky130_fd_sc_hd__a21o_1_1/a_299_297# -0.00449f
C191 P2 sky130_fd_sc_hd__a21o_1_2/a_299_297# 0.055f
C192 sky130_fd_sc_hd__and4_1_0/a_27_47# P3 0.0397f
C193 sky130_fd_sc_hd__a21o_1_1/X G1 0.00394f
C194 G1 G2 0.0921f
C195 SUB sky130_fd_sc_hd__a21o_1_2/a_81_21# -0.0181f
C196 sky130_fd_sc_hd__and4_1_0/a_27_47# sky130_fd_sc_hd__a21o_1_2/X 0.0588f
C197 G4 P3 0.0694f
C198 SUB sky130_fd_sc_hd__a21o_1_0/a_299_297# -0.00449f
C199 sky130_fd_sc_hd__a21o_1_2/X G4 0.00776f
C200 sky130_fd_sc_hd__and4_1_0/a_27_47# P4 0.00576f
C201 VDD P2 0.383f
C202 sky130_fd_sc_hd__a21o_1_1/X sky130_fd_sc_hd__and4_1_0/a_27_47# 1.67e-19
C203 sky130_fd_sc_hd__and4_1_0/a_303_47# sky130_fd_sc_hd__and4_1_0/X 3.17e-19
C204 SUB 0 1.71f
C205 sky130_fd_sc_hd__and4_1_0/X 0 0.154f
C206 P1 0 0.164f
C207 P3 0 0.297f
C208 P2 0 0.31f
C209 P4 0 0.324f
C210 sky130_fd_sc_hd__and4_1_0/a_27_47# 0 0.175f
C211 CO 0 0.0276f
C212 CI 0 0.158f
C213 sky130_fd_sc_hd__a21o_1_3/a_299_297# 0 0.0348f
C214 sky130_fd_sc_hd__a21o_1_3/a_81_21# 0 0.147f
C215 sky130_fd_sc_hd__a21o_1_2/X 0 0.168f
C216 sky130_fd_sc_hd__a21o_1_1/X 0 0.129f
C217 G4 0 0.137f
C218 sky130_fd_sc_hd__a21o_1_2/a_299_297# 0 0.0348f
C219 sky130_fd_sc_hd__a21o_1_2/a_81_21# 0 0.147f
C220 sky130_fd_sc_hd__a21o_1_0/X 0 0.223f
C221 G3 0 0.137f
C222 sky130_fd_sc_hd__a21o_1_1/a_299_297# 0 0.0348f
C223 sky130_fd_sc_hd__a21o_1_1/a_81_21# 0 0.147f
C224 G1 0 0.12f
C225 G2 0 0.163f
C226 sky130_fd_sc_hd__a21o_1_0/a_299_297# 0 0.0348f
C227 sky130_fd_sc_hd__a21o_1_0/a_81_21# 0 0.147f
C228 VDD 0 4.61f
.ends

.subckt sky130_fd_sc_hd__xor2_1 A B VGND VNB VPB VPWR X a_117_297# a_285_297# a_285_47#
+ a_35_297#
X0 X a_35_297# a_285_297# VPB sky130_fd_pr__pfet_01v8_hvt ad=0.3 pd=2.6 as=0.177 ps=1.69 w=1 l=0.15
**devattr s=10400,504 d=12000,520
X1 X B a_285_47# VNB sky130_fd_pr__nfet_01v8 ad=0.25 pd=1.42 as=0.0878 ps=0.92 w=0.65 l=0.15
**devattr s=3510,184 d=10010,284
X2 a_35_297# B VGND VNB sky130_fd_pr__nfet_01v8 ad=0.0878 pd=0.92 as=0.138 ps=1.4 w=0.65 l=0.15
**devattr s=6760,364 d=3510,184
X3 a_117_297# B a_35_297# VPB sky130_fd_pr__pfet_01v8_hvt ad=0.135 pd=1.27 as=0.26 ps=2.52 w=1 l=0.15
**devattr s=10400,504 d=5400,254
X4 VPWR B a_285_297# VPB sky130_fd_pr__pfet_01v8_hvt ad=0.177 pd=1.69 as=0.177 ps=1.69 w=1 l=0.15
**devattr s=5400,254 d=10400,504
X5 VGND A a_35_297# VNB sky130_fd_pr__nfet_01v8 ad=0.138 pd=1.4 as=0.0878 ps=0.92 w=0.65 l=0.15
**devattr s=3510,184 d=3510,184
X6 VGND a_35_297# X VNB sky130_fd_pr__nfet_01v8 ad=0.138 pd=1.4 as=0.25 ps=1.42 w=0.65 l=0.15
**devattr s=10010,284 d=8320,388
X7 a_285_297# A VPWR VPB sky130_fd_pr__pfet_01v8_hvt ad=0.177 pd=1.69 as=0.177 ps=1.69 w=1 l=0.15
**devattr s=5400,254 d=5400,254
X8 VPWR A a_117_297# VPB sky130_fd_pr__pfet_01v8_hvt ad=0.177 pd=1.69 as=0.135 ps=1.27 w=1 l=0.15
**devattr s=5400,254 d=5400,254
X9 a_285_47# A VGND VNB sky130_fd_pr__nfet_01v8 ad=0.0878 pd=0.92 as=0.138 ps=1.4 w=0.65 l=0.15
**devattr s=3510,184 d=3510,184
C0 A a_35_297# 0.0633f
C1 X a_35_297# 0.166f
C2 VPB a_35_297# 0.0699f
C3 a_285_297# a_35_297# 0.025f
C4 a_117_297# a_35_297# 0.00641f
C5 B a_35_297# 0.203f
C6 a_35_297# VGND 0.177f
C7 VPWR a_35_297# 0.096f
C8 X a_285_47# 0.00206f
C9 B a_285_47# 3.98e-19
C10 a_285_47# VGND 0.00552f
C11 VPWR a_285_47# 8.6e-19
C12 A X 0.00166f
C13 A VPB 0.051f
C14 VPB X 0.0154f
C15 a_35_297# a_285_47# 0.00723f
C16 A a_285_297# 0.00749f
C17 A B 0.221f
C18 a_285_297# X 0.0712f
C19 A VGND 0.0325f
C20 a_117_297# X 2.25e-19
C21 B X 0.0149f
C22 X VGND 0.173f
C23 a_285_297# VPB 0.0133f
C24 A VPWR 0.0348f
C25 B VPB 0.0697f
C26 VPB VGND 0.00696f
C27 VPWR X 0.0537f
C28 VPWR VPB 0.0689f
C29 B a_285_297# 0.0553f
C30 a_117_297# B 0.00777f
C31 a_285_297# VGND 0.00394f
C32 a_117_297# VGND 0.00177f
C33 B VGND 0.0304f
C34 a_285_297# VPWR 0.246f
C35 a_117_297# VPWR 0.00852f
C36 B VPWR 0.0703f
C37 VPWR VGND 0.0643f
C38 VGND VNB 0.435f
C39 X VNB 0.0649f
C40 VPWR VNB 0.333f
C41 A VNB 0.167f
C42 B VNB 0.213f
C43 VPB VNB 0.693f
C44 a_285_297# VNB 0.00137f
C45 a_35_297# VNB 0.255f
.ends

.subckt adder_3 G1 P2 G2 G3 P4 S1 S2 S3 S4 sky130_fd_sc_hd__xor2_1_3/a_117_297# sky130_fd_sc_hd__xor2_1_3/a_35_297#
+ sky130_fd_sc_hd__a21o_1_0/a_81_21# sky130_fd_sc_hd__xor2_1_3/a_285_47# sky130_fd_sc_hd__xor2_1_0/a_285_297#
+ sky130_fd_sc_hd__a21o_1_0/a_384_47# sky130_fd_sc_hd__xor2_1_1/a_285_297# sky130_fd_sc_hd__xor2_1_0/a_35_297#
+ sky130_fd_sc_hd__xor2_1_0/a_285_47# sky130_fd_sc_hd__a21o_1_1/a_81_21# sky130_fd_sc_hd__a21o_1_0/a_299_297#
+ sky130_fd_sc_hd__xor2_1_2/a_285_297# sky130_fd_sc_hd__xor2_1_3/a_285_297# sky130_fd_sc_hd__a21o_1_1/a_299_297#
+ sky130_fd_sc_hd__a21o_1_2/a_299_297# sky130_fd_sc_hd__xor2_1_1/a_35_297# sky130_fd_sc_hd__xor2_1_3/B
+ sky130_fd_sc_hd__xor2_1_1/a_285_47# sky130_fd_sc_hd__xor2_1_1/B sky130_fd_sc_hd__a21o_1_2/a_81_21#
+ sky130_fd_sc_hd__a21o_1_2/a_384_47# sky130_fd_sc_hd__xor2_1_0/a_117_297# sky130_fd_sc_hd__xor2_1_2/a_285_47#
+ sky130_fd_sc_hd__xor2_1_2/a_35_297# sky130_fd_sc_hd__xor2_1_1/a_117_297# CI P1 SUB
+ sky130_fd_sc_hd__xor2_1_2/B sky130_fd_sc_hd__xor2_1_2/a_117_297# VDD P3
Xsky130_fd_sc_hd__xor2_1_3 P4 sky130_fd_sc_hd__xor2_1_3/B SUB SUB VDD VDD S4 sky130_fd_sc_hd__xor2_1_3/a_117_297#
+ sky130_fd_sc_hd__xor2_1_3/a_285_297# sky130_fd_sc_hd__xor2_1_3/a_285_47# sky130_fd_sc_hd__xor2_1_3/a_35_297#
+ sky130_fd_sc_hd__xor2_1
Xsky130_fd_sc_hd__a21o_1_0 CI P1 G1 SUB SUB VDD VDD sky130_fd_sc_hd__xor2_1_1/B sky130_fd_sc_hd__a21o_1_0/a_384_47#
+ sky130_fd_sc_hd__a21o_1_0/a_81_21# sky130_fd_sc_hd__a21o_1_0/a_299_297# sky130_fd_sc_hd__a21o_1
Xsky130_fd_sc_hd__a21o_1_1 sky130_fd_sc_hd__xor2_1_1/B P2 G2 SUB SUB VDD VDD sky130_fd_sc_hd__xor2_1_2/B
+ sky130_fd_sc_hd__a21o_1_1/a_384_47# sky130_fd_sc_hd__a21o_1_1/a_81_21# sky130_fd_sc_hd__a21o_1_1/a_299_297#
+ sky130_fd_sc_hd__a21o_1
Xsky130_fd_sc_hd__a21o_1_2 sky130_fd_sc_hd__xor2_1_2/B P3 G3 SUB SUB VDD VDD sky130_fd_sc_hd__xor2_1_3/B
+ sky130_fd_sc_hd__a21o_1_2/a_384_47# sky130_fd_sc_hd__a21o_1_2/a_81_21# sky130_fd_sc_hd__a21o_1_2/a_299_297#
+ sky130_fd_sc_hd__a21o_1
Xsky130_fd_sc_hd__xor2_1_0 P1 CI SUB SUB VDD VDD S1 sky130_fd_sc_hd__xor2_1_0/a_117_297#
+ sky130_fd_sc_hd__xor2_1_0/a_285_297# sky130_fd_sc_hd__xor2_1_0/a_285_47# sky130_fd_sc_hd__xor2_1_0/a_35_297#
+ sky130_fd_sc_hd__xor2_1
Xsky130_fd_sc_hd__xor2_1_1 P2 sky130_fd_sc_hd__xor2_1_1/B SUB SUB VDD VDD S2 sky130_fd_sc_hd__xor2_1_1/a_117_297#
+ sky130_fd_sc_hd__xor2_1_1/a_285_297# sky130_fd_sc_hd__xor2_1_1/a_285_47# sky130_fd_sc_hd__xor2_1_1/a_35_297#
+ sky130_fd_sc_hd__xor2_1
Xsky130_fd_sc_hd__xor2_1_2 P3 sky130_fd_sc_hd__xor2_1_2/B SUB SUB VDD VDD S3 sky130_fd_sc_hd__xor2_1_2/a_117_297#
+ sky130_fd_sc_hd__xor2_1_2/a_285_297# sky130_fd_sc_hd__xor2_1_2/a_285_47# sky130_fd_sc_hd__xor2_1_2/a_35_297#
+ sky130_fd_sc_hd__xor2_1
C0 S2 VDD 0.0397f
C1 sky130_fd_sc_hd__xor2_1_3/a_35_297# sky130_fd_sc_hd__xor2_1_2/a_35_297# 0.00123f
C2 sky130_fd_sc_hd__xor2_1_1/B S3 3.34e-20
C3 P1 sky130_fd_sc_hd__a21o_1_2/a_81_21# 2.85e-19
C4 CI G2 2.73e-19
C5 SUB sky130_fd_sc_hd__a21o_1_2/a_384_47# -2.27e-19
C6 P2 sky130_fd_sc_hd__xor2_1_1/a_35_297# 0.0178f
C7 sky130_fd_sc_hd__a21o_1_2/a_81_21# VDD -0.00306f
C8 S4 SUB 0.0195f
C9 CI SUB 0.176f
C10 S4 S3 0.0102f
C11 SUB P4 0.0233f
C12 S3 P4 0.00111f
C13 S1 P1 0.00593f
C14 sky130_fd_sc_hd__xor2_1_0/a_35_297# sky130_fd_sc_hd__a21o_1_2/a_81_21# 0.00109f
C15 P3 sky130_fd_sc_hd__xor2_1_1/B 0.051f
C16 G2 P2 6.94e-19
C17 S1 VDD 0.0368f
C18 sky130_fd_sc_hd__xor2_1_0/a_285_297# sky130_fd_sc_hd__xor2_1_3/B 1.77e-19
C19 SUB P2 0.384f
C20 SUB sky130_fd_sc_hd__a21o_1_0/a_384_47# 4.44e-34
C21 P3 sky130_fd_sc_hd__a21o_1_2/a_384_47# 5.7e-19
C22 sky130_fd_sc_hd__xor2_1_0/a_285_47# P1 0.00118f
C23 S1 sky130_fd_sc_hd__xor2_1_0/a_35_297# 0.00396f
C24 P2 S3 2.48e-20
C25 S4 P3 8.8e-19
C26 CI P3 0.346f
C27 sky130_fd_sc_hd__xor2_1_0/a_285_47# VDD -8.6e-19
C28 P3 P4 4.73e-19
C29 S2 sky130_fd_sc_hd__xor2_1_1/a_117_297# 5.82e-19
C30 sky130_fd_sc_hd__xor2_1_2/a_35_297# sky130_fd_sc_hd__xor2_1_1/a_35_297# 0.00123f
C31 G1 sky130_fd_sc_hd__xor2_1_1/B 0.0614f
C32 sky130_fd_sc_hd__xor2_1_1/B sky130_fd_sc_hd__a21o_1_1/a_81_21# 0.0601f
C33 SUB G3 8.34e-19
C34 S2 sky130_fd_sc_hd__xor2_1_1/a_35_297# 0.00476f
C35 P3 P2 0.608f
C36 S4 sky130_fd_sc_hd__xor2_1_3/a_117_297# 6.67e-19
C37 sky130_fd_sc_hd__xor2_1_0/a_117_297# VDD -2.04e-19
C38 sky130_fd_sc_hd__a21o_1_1/a_299_297# sky130_fd_sc_hd__xor2_1_3/B 0.0322f
C39 G1 CI 0.0805f
C40 sky130_fd_sc_hd__a21o_1_0/a_299_297# P1 0.00669f
C41 sky130_fd_sc_hd__a21o_1_1/a_299_297# sky130_fd_sc_hd__xor2_1_2/B 0.00516f
C42 CI sky130_fd_sc_hd__a21o_1_1/a_81_21# 1.09e-19
C43 sky130_fd_sc_hd__xor2_1_1/B sky130_fd_sc_hd__a21o_1_0/a_81_21# 0.0562f
C44 S1 sky130_fd_sc_hd__xor2_1_1/a_117_297# 0.00102f
C45 SUB sky130_fd_sc_hd__xor2_1_2/a_35_297# -0.0113f
C46 sky130_fd_sc_hd__a21o_1_0/a_299_297# VDD 0.0016f
C47 sky130_fd_sc_hd__xor2_1_2/a_35_297# S3 0.00495f
C48 CI sky130_fd_sc_hd__a21o_1_0/a_81_21# 0.0177f
C49 S1 sky130_fd_sc_hd__xor2_1_1/a_35_297# 0.0535f
C50 SUB S2 -0.00162f
C51 P2 sky130_fd_sc_hd__a21o_1_1/a_81_21# 0.00611f
C52 S2 S3 0.0102f
C53 sky130_fd_sc_hd__xor2_1_2/B sky130_fd_sc_hd__xor2_1_3/B 0.171f
C54 SUB sky130_fd_sc_hd__a21o_1_2/a_81_21# -0.0181f
C55 P3 sky130_fd_sc_hd__xor2_1_2/a_35_297# 0.0152f
C56 sky130_fd_sc_hd__a21o_1_1/a_384_47# sky130_fd_sc_hd__xor2_1_3/B 1.76e-19
C57 sky130_fd_sc_hd__xor2_1_2/a_285_297# VDD 2.35e-20
C58 sky130_fd_sc_hd__a21o_1_1/a_384_47# sky130_fd_sc_hd__xor2_1_2/B 4.32e-19
C59 S1 SUB -0.00328f
C60 sky130_fd_sc_hd__xor2_1_2/a_117_297# S2 8.82e-19
C61 P3 S2 0.00112f
C62 S1 S3 3.29e-19
C63 sky130_fd_sc_hd__xor2_1_1/a_285_297# S2 0.00293f
C64 sky130_fd_sc_hd__a21o_1_2/a_299_297# sky130_fd_sc_hd__xor2_1_3/B 6.06e-19
C65 sky130_fd_sc_hd__xor2_1_2/B sky130_fd_sc_hd__a21o_1_2/a_299_297# 0.00554f
C66 P3 sky130_fd_sc_hd__a21o_1_2/a_81_21# 4.57e-20
C67 SUB sky130_fd_sc_hd__xor2_1_0/a_285_47# -4.65e-19
C68 sky130_fd_sc_hd__xor2_1_0/a_285_297# VDD -3.91e-19
C69 S1 sky130_fd_sc_hd__xor2_1_2/a_117_297# 2.46e-20
C70 S1 P3 2.04e-19
C71 S1 sky130_fd_sc_hd__xor2_1_1/a_285_297# 0.00137f
C72 sky130_fd_sc_hd__xor2_1_1/B sky130_fd_sc_hd__a21o_1_2/a_384_47# 2.81e-20
C73 CI sky130_fd_sc_hd__xor2_1_1/B 0.155f
C74 SUB sky130_fd_sc_hd__xor2_1_0/a_117_297# -0.00177f
C75 sky130_fd_sc_hd__xor2_1_1/B P4 9.9e-21
C76 SUB sky130_fd_sc_hd__a21o_1_0/a_299_297# -0.00435f
C77 S4 P4 0.00239f
C78 sky130_fd_sc_hd__a21o_1_1/a_299_297# VDD 0.0016f
C79 P2 sky130_fd_sc_hd__xor2_1_1/B 0.223f
C80 sky130_fd_sc_hd__xor2_1_1/B sky130_fd_sc_hd__a21o_1_0/a_384_47# 3.85e-19
C81 SUB sky130_fd_sc_hd__xor2_1_2/a_285_297# -0.00394f
C82 sky130_fd_sc_hd__xor2_1_2/a_285_297# S3 0.00453f
C83 CI P2 0.186f
C84 CI sky130_fd_sc_hd__a21o_1_0/a_384_47# 0.00162f
C85 sky130_fd_sc_hd__xor2_1_3/B P1 0.0733f
C86 G3 sky130_fd_sc_hd__xor2_1_1/B 0.0538f
C87 sky130_fd_sc_hd__xor2_1_2/B P1 0.183f
C88 sky130_fd_sc_hd__xor2_1_3/B VDD 0.167f
C89 sky130_fd_sc_hd__xor2_1_2/B VDD 0.108f
C90 sky130_fd_sc_hd__a21o_1_1/a_384_47# VDD -4.08e-19
C91 sky130_fd_sc_hd__xor2_1_1/a_285_47# sky130_fd_sc_hd__xor2_1_3/B 0.00253f
C92 sky130_fd_sc_hd__xor2_1_1/a_285_47# sky130_fd_sc_hd__xor2_1_2/B 5.8e-19
C93 sky130_fd_sc_hd__xor2_1_1/B sky130_fd_sc_hd__xor2_1_2/a_35_297# 6.93e-20
C94 CI G3 2.35e-19
C95 sky130_fd_sc_hd__xor2_1_0/a_35_297# sky130_fd_sc_hd__xor2_1_3/B 0.0707f
C96 sky130_fd_sc_hd__xor2_1_0/a_35_297# sky130_fd_sc_hd__xor2_1_2/B 0.00271f
C97 sky130_fd_sc_hd__xor2_1_3/a_35_297# sky130_fd_sc_hd__xor2_1_3/B 0.0593f
C98 sky130_fd_sc_hd__xor2_1_0/a_285_297# SUB -0.00394f
C99 sky130_fd_sc_hd__a21o_1_2/a_299_297# VDD 0.0344f
C100 S2 sky130_fd_sc_hd__xor2_1_1/B 0.00554f
C101 G3 P2 0.0223f
C102 sky130_fd_sc_hd__xor2_1_1/B sky130_fd_sc_hd__a21o_1_2/a_81_21# 0.0491f
C103 sky130_fd_sc_hd__xor2_1_1/a_117_297# sky130_fd_sc_hd__xor2_1_3/B 0.00134f
C104 P2 sky130_fd_sc_hd__xor2_1_2/a_35_297# 6.69e-19
C105 CI sky130_fd_sc_hd__a21o_1_2/a_81_21# 1.2e-19
C106 S1 sky130_fd_sc_hd__xor2_1_1/B 0.112f
C107 SUB sky130_fd_sc_hd__a21o_1_1/a_299_297# -0.00436f
C108 sky130_fd_sc_hd__xor2_1_3/B sky130_fd_sc_hd__xor2_1_1/a_35_297# 0.0714f
C109 sky130_fd_sc_hd__xor2_1_2/B sky130_fd_sc_hd__xor2_1_1/a_35_297# 0.0151f
C110 P2 S2 0.0068f
C111 CI S1 0.002f
C112 sky130_fd_sc_hd__xor2_1_1/B sky130_fd_sc_hd__xor2_1_0/a_285_47# 2.47e-19
C113 P2 sky130_fd_sc_hd__a21o_1_2/a_81_21# 0.0197f
C114 G2 sky130_fd_sc_hd__xor2_1_3/B 2.64e-19
C115 G2 sky130_fd_sc_hd__xor2_1_2/B 0.0266f
C116 SUB sky130_fd_sc_hd__xor2_1_3/B 1.3f
C117 S1 P2 0.00354f
C118 SUB sky130_fd_sc_hd__xor2_1_2/B 0.233f
C119 sky130_fd_sc_hd__xor2_1_3/B S3 0.0617f
C120 sky130_fd_sc_hd__xor2_1_0/a_117_297# sky130_fd_sc_hd__xor2_1_1/B 0.00427f
C121 sky130_fd_sc_hd__xor2_1_2/B S3 0.00532f
C122 G3 sky130_fd_sc_hd__a21o_1_2/a_81_21# 0.0232f
C123 sky130_fd_sc_hd__xor2_1_1/B sky130_fd_sc_hd__a21o_1_0/a_299_297# 0.0526f
C124 P1 VDD 0.00988f
C125 S2 sky130_fd_sc_hd__xor2_1_2/a_35_297# 0.0515f
C126 P2 sky130_fd_sc_hd__xor2_1_0/a_285_47# 4.62e-19
C127 CI sky130_fd_sc_hd__xor2_1_0/a_117_297# 9.44e-19
C128 sky130_fd_sc_hd__xor2_1_0/a_35_297# P1 0.0139f
C129 S1 G3 8.29e-20
C130 sky130_fd_sc_hd__xor2_1_1/a_285_47# VDD -7.24e-19
C131 sky130_fd_sc_hd__xor2_1_2/a_117_297# sky130_fd_sc_hd__xor2_1_3/B 0.00134f
C132 SUB sky130_fd_sc_hd__a21o_1_2/a_299_297# -0.00449f
C133 CI sky130_fd_sc_hd__a21o_1_0/a_299_297# 0.00517f
C134 sky130_fd_sc_hd__xor2_1_2/a_117_297# sky130_fd_sc_hd__xor2_1_2/B 0.00267f
C135 P3 sky130_fd_sc_hd__xor2_1_3/B 0.159f
C136 sky130_fd_sc_hd__xor2_1_0/a_35_297# VDD 0.042f
C137 P3 sky130_fd_sc_hd__xor2_1_2/B 0.902f
C138 sky130_fd_sc_hd__xor2_1_1/a_285_297# sky130_fd_sc_hd__xor2_1_3/B 0.00704f
C139 sky130_fd_sc_hd__xor2_1_3/a_35_297# VDD 0.00512f
C140 sky130_fd_sc_hd__xor2_1_3/B sky130_fd_sc_hd__xor2_1_3/a_285_47# 3.65e-19
C141 S1 sky130_fd_sc_hd__xor2_1_2/a_35_297# 2.99e-20
C142 G1 sky130_fd_sc_hd__xor2_1_3/B 1.88e-20
C143 sky130_fd_sc_hd__xor2_1_3/a_117_297# sky130_fd_sc_hd__xor2_1_3/B 0.00267f