* NGSPICE file created from adder_4.ext - technology: sky130A

.subckt sky130_fd_sc_hd__a21o_1 A1 A2 B1 VGND VNB VPB VPWR X a_384_47# a_81_21# a_299_297#
X0 a_81_21# B1 VGND VNB sky130_fd_pr__nfet_01v8 ad=0.0894 pd=0.925 as=0.229 ps=1.57 w=0.65 l=0.15
**devattr s=10270,288 d=3575,185
X1 a_299_297# B1 a_81_21# VPB sky130_fd_pr__pfet_01v8_hvt ad=0.18 pd=1.69 as=0.26 ps=2.52 w=1 l=0.15
**devattr s=10400,504 d=5500,255
X2 VPWR a_81_21# X VPB sky130_fd_pr__pfet_01v8_hvt ad=0.18 pd=1.69 as=0.26 ps=2.52 w=1 l=0.15
**devattr s=10400,504 d=10400,504
X3 VPWR A1 a_299_297# VPB sky130_fd_pr__pfet_01v8_hvt ad=0.18 pd=1.69 as=0.18 ps=1.69 w=1 l=0.15
**devattr s=5500,255 d=5600,256
X4 VGND a_81_21# X VNB sky130_fd_pr__nfet_01v8 ad=0.229 pd=1.57 as=0.169 ps=1.82 w=0.65 l=0.15
**devattr s=6760,364 d=10270,288
X5 VGND A2 a_384_47# VNB sky130_fd_pr__nfet_01v8 ad=0.229 pd=1.57 as=0.091 ps=0.93 w=0.65 l=0.15
**devattr s=3640,186 d=6890,366
X6 a_299_297# A2 VPWR VPB sky130_fd_pr__pfet_01v8_hvt ad=0.18 pd=1.69 as=0.18 ps=1.69 w=1 l=0.15
**devattr s=5600,256 d=10600,506
X7 a_384_47# A1 a_81_21# VNB sky130_fd_pr__nfet_01v8 ad=0.091 pd=0.93 as=0.0894 ps=0.925 w=0.65 l=0.15
**devattr s=3575,185 d=3640,186
C0 B1 A1 0.0817f
C1 X a_81_21# 0.112f
C2 X VPB 0.0108f
C3 a_299_297# VGND 0.00772f
C4 VGND a_81_21# 0.173f
C5 VPWR A1 0.0209f
C6 VGND VPB 0.00713f
C7 VPWR A2 0.0201f
C8 X B1 3.04e-20
C9 a_299_297# a_81_21# 0.0821f
C10 a_299_297# VPB 0.0111f
C11 a_81_21# VPB 0.0593f
C12 VGND B1 0.0181f
C13 a_384_47# A1 0.00884f
C14 X VPWR 0.0847f
C15 VPWR VGND 0.0579f
C16 a_299_297# B1 0.00863f
C17 a_81_21# B1 0.148f
C18 B1 VPB 0.0387f
C19 a_299_297# VPWR 0.202f
C20 A1 A2 0.0921f
C21 VPWR a_81_21# 0.146f
C22 VPWR VPB 0.068f
C23 a_384_47# VGND 0.00366f
C24 a_299_297# a_384_47# 1.48e-19
C25 VPWR B1 0.0196f
C26 a_384_47# a_81_21# 0.00138f
C27 VGND A1 0.0786f
C28 VGND A2 0.0495f
C29 a_299_297# A1 0.0585f
C30 a_81_21# A1 0.0568f
C31 a_299_297# A2 0.0468f
C32 a_81_21# A2 7.47e-19
C33 A1 VPB 0.0264f
C34 X VGND 0.0512f
C35 A2 VPB 0.0373f
C36 a_384_47# VPWR 4.08e-19
C37 VGND VNB 0.364f
C38 VPWR VNB 0.286f
C39 X VNB 0.0945f
C40 A2 VNB 0.144f
C41 A1 VNB 0.0996f
C42 B1 VNB 0.109f
C43 VPB VNB 0.605f
C44 a_299_297# VNB 0.0348f
C45 a_81_21# VNB 0.147f
.ends

.subckt sky130_fd_sc_hd__and4_1 A B C D VGND VNB VPB VPWR X a_109_47# a_197_47# a_303_47#
+ a_27_47#
X0 a_27_47# C VPWR VPB sky130_fd_pr__pfet_01v8_hvt ad=0.0662 pd=0.735 as=0.139 ps=0.987 w=0.42 l=0.15
**devattr s=3108,158 d=2352,140
X1 a_197_47# B a_109_47# VNB sky130_fd_pr__nfet_01v8 ad=0.0798 pd=0.8 as=0.0609 ps=0.71 w=0.42 l=0.15
**devattr s=2436,142 d=3192,160
X2 X a_27_47# VPWR VPB sky130_fd_pr__pfet_01v8_hvt ad=0.26 pd=2.52 as=0.332 ps=2.35 w=1 l=0.15
**devattr s=12498,336 d=10400,504
X3 a_303_47# C a_197_47# VNB sky130_fd_pr__nfet_01v8 ad=0.0693 pd=0.75 as=0.0798 ps=0.8 w=0.42 l=0.15
**devattr s=3192,160 d=2772,150
X4 a_27_47# A VPWR VPB sky130_fd_pr__pfet_01v8_hvt ad=0.0662 pd=0.735 as=0.139 ps=0.987 w=0.42 l=0.15
**devattr s=4368,272 d=2940,154
X5 VPWR D a_27_47# VPB sky130_fd_pr__pfet_01v8_hvt ad=0.139 pd=0.987 as=0.0662 ps=0.735 w=0.42 l=0.15
**devattr s=2352,140 d=12498,336
X6 VGND D a_303_47# VNB sky130_fd_pr__nfet_01v8 ad=0.154 pd=1.04 as=0.0693 ps=0.75 w=0.42 l=0.15
**devattr s=2772,150 d=7851,266
X7 VPWR B a_27_47# VPB sky130_fd_pr__pfet_01v8_hvt ad=0.139 pd=0.987 as=0.0662 ps=0.735 w=0.42 l=0.15
**devattr s=2940,154 d=3108,158
X8 X a_27_47# VGND VNB sky130_fd_pr__nfet_01v8 ad=0.169 pd=1.82 as=0.238 ps=1.62 w=0.65 l=0.15
**devattr s=7851,266 d=6760,364
X9 a_109_47# A a_27_47# VNB sky130_fd_pr__nfet_01v8 ad=0.0609 pd=0.71 as=0.109 ps=1.36 w=0.42 l=0.15
**devattr s=4368,272 d=2436,142
C0 VPB a_27_47# 0.082f
C1 VGND A 0.0151f
C2 C a_109_47# 1.72e-20
C3 A a_27_47# 0.153f
C4 VGND a_27_47# 0.132f
C5 D VPWR 0.0207f
C6 VPB X 0.0111f
C7 D a_303_47# 0.00119f
C8 C D 0.18f
C9 X VGND 0.0903f
C10 VGND a_109_47# 0.00223f
C11 B VPWR 0.0231f
C12 B a_197_47# 0.00623f
C13 X a_27_47# 0.0754f
C14 a_109_47# a_27_47# 0.00578f
C15 VPWR a_197_47# 5.24e-19
C16 D VPB 0.0782f
C17 VPWR a_303_47# 4.83e-19
C18 C B 0.161f
C19 C VPWR 0.021f
C20 D VGND 0.0898f
C21 C a_197_47# 0.00123f
C22 C a_303_47# 0.00527f
C23 D a_27_47# 0.107f
C24 B VPB 0.0643f
C25 VPB VPWR 0.077f
C26 B A 0.0839f
C27 A VPWR 0.044f
C28 B VGND 0.0453f
C29 VGND VPWR 0.0662f
C30 D X 0.00746f
C31 C VPB 0.0609f
C32 VGND a_197_47# 0.00387f
C33 VGND a_303_47# 0.00381f
C34 B a_27_47# 0.13f
C35 VPWR a_27_47# 0.326f
C36 a_197_47# a_27_47# 0.00167f
C37 a_303_47# a_27_47# 0.00119f
C38 C VGND 0.0408f
C39 VPB A 0.0907f
C40 C a_27_47# 0.0516f
C41 X VPWR 0.0945f
C42 B a_109_47# 0.00153f
C43 VPWR a_109_47# 4.66e-19
C44 VPB VGND 0.00852f
C45 VGND VNB 0.393f
C46 X VNB 0.0933f
C47 VPWR VNB 0.335f
C48 D VNB 0.13f
C49 C VNB 0.11f
C50 B VNB 0.112f
C51 A VNB 0.221f
C52 VPB VNB 0.693f
C53 a_27_47# VNB 0.175f
.ends

.subckt adder_2 CI P1 G1 P2 G2 P3 G3 P4 G4 CO sky130_fd_sc_hd__a21o_1_0/a_81_21# sky130_fd_sc_hd__and4_1_0/a_27_47#
+ sky130_fd_sc_hd__a21o_1_0/a_384_47# sky130_fd_sc_hd__a21o_1_1/X sky130_fd_sc_hd__a21o_1_1/a_81_21#
+ sky130_fd_sc_hd__a21o_1_0/a_299_297# VPB sky130_fd_sc_hd__a21o_1_1/a_299_297# sky130_fd_sc_hd__a21o_1_1/a_384_47#
+ sky130_fd_sc_hd__a21o_1_2/a_299_297# sky130_fd_sc_hd__and4_1_0/a_109_47# sky130_fd_sc_hd__a21o_1_2/X
+ sky130_fd_sc_hd__a21o_1_0/X sky130_fd_sc_hd__and4_1_0/X sky130_fd_sc_hd__a21o_1_3/a_299_297#
+ sky130_fd_sc_hd__a21o_1_2/a_81_21# VNB sky130_fd_sc_hd__and4_1_0/a_197_47# sky130_fd_sc_hd__a21o_1_2/a_384_47#
+ sky130_fd_sc_hd__and4_1_0/a_303_47# sky130_fd_sc_hd__a21o_1_3/a_81_21# sky130_fd_sc_hd__a21o_1_3/a_384_47#
Xsky130_fd_sc_hd__a21o_1_0 G1 P2 G2 VNB VNB VPB VPB sky130_fd_sc_hd__a21o_1_0/X sky130_fd_sc_hd__a21o_1_0/a_384_47#
+ sky130_fd_sc_hd__a21o_1_0/a_81_21# sky130_fd_sc_hd__a21o_1_0/a_299_297# sky130_fd_sc_hd__a21o_1
Xsky130_fd_sc_hd__a21o_1_1 sky130_fd_sc_hd__a21o_1_0/X P3 G3 VNB VNB VPB VPB sky130_fd_sc_hd__a21o_1_1/X
+ sky130_fd_sc_hd__a21o_1_1/a_384_47# sky130_fd_sc_hd__a21o_1_1/a_81_21# sky130_fd_sc_hd__a21o_1_1/a_299_297#
+ sky130_fd_sc_hd__a21o_1
Xsky130_fd_sc_hd__a21o_1_2 sky130_fd_sc_hd__a21o_1_1/X P4 G4 VNB VNB VPB VPB sky130_fd_sc_hd__a21o_1_2/X
+ sky130_fd_sc_hd__a21o_1_2/a_384_47# sky130_fd_sc_hd__a21o_1_2/a_81_21# sky130_fd_sc_hd__a21o_1_2/a_299_297#
+ sky130_fd_sc_hd__a21o_1
Xsky130_fd_sc_hd__a21o_1_3 sky130_fd_sc_hd__and4_1_0/X CI sky130_fd_sc_hd__a21o_1_2/X
+ VNB VNB VPB VPB CO sky130_fd_sc_hd__a21o_1_3/a_384_47# sky130_fd_sc_hd__a21o_1_3/a_81_21#
+ sky130_fd_sc_hd__a21o_1_3/a_299_297# sky130_fd_sc_hd__a21o_1
Xsky130_fd_sc_hd__and4_1_0 P4 P2 P3 P1 VNB VNB VPB VPB sky130_fd_sc_hd__and4_1_0/X
+ sky130_fd_sc_hd__and4_1_0/a_109_47# sky130_fd_sc_hd__and4_1_0/a_197_47# sky130_fd_sc_hd__and4_1_0/a_303_47#
+ sky130_fd_sc_hd__and4_1_0/a_27_47# sky130_fd_sc_hd__and4_1
C0 CI VNB 0.02f
C1 sky130_fd_sc_hd__a21o_1_2/X sky130_fd_sc_hd__a21o_1_0/X 0.00439f
C2 sky130_fd_sc_hd__a21o_1_2/X P2 0.455f
C3 sky130_fd_sc_hd__a21o_1_0/a_81_21# sky130_fd_sc_hd__a21o_1_2/X 8.44e-20
C4 G4 sky130_fd_sc_hd__a21o_1_1/X 0.0897f
C5 sky130_fd_sc_hd__and4_1_0/a_109_47# sky130_fd_sc_hd__and4_1_0/X 1.62e-19
C6 sky130_fd_sc_hd__a21o_1_1/a_299_297# P2 0.0566f
C7 G1 sky130_fd_sc_hd__a21o_1_1/X 0.00394f
C8 VNB sky130_fd_sc_hd__a21o_1_0/a_384_47# -2.71e-19
C9 sky130_fd_sc_hd__and4_1_0/a_109_47# VNB -6.28e-20
C10 P1 sky130_fd_sc_hd__a21o_1_1/X 4.83e-20
C11 sky130_fd_sc_hd__and4_1_0/a_27_47# VPB -0.0199f
C12 sky130_fd_sc_hd__a21o_1_2/X sky130_fd_sc_hd__a21o_1_1/a_299_297# 0.0334f
C13 G1 sky130_fd_sc_hd__a21o_1_0/a_299_297# 0.0137f
C14 sky130_fd_sc_hd__and4_1_0/a_27_47# P3 0.0397f
C15 P3 VPB 0.0048f
C16 sky130_fd_sc_hd__and4_1_0/a_197_47# VPB -5.24e-19
C17 sky130_fd_sc_hd__a21o_1_1/a_384_47# VPB -4.08e-19
C18 sky130_fd_sc_hd__a21o_1_0/X sky130_fd_sc_hd__a21o_1_1/X 0.121f
C19 sky130_fd_sc_hd__and4_1_0/a_197_47# P3 0.0016f
C20 sky130_fd_sc_hd__and4_1_0/a_27_47# P4 0.00576f
C21 P2 sky130_fd_sc_hd__a21o_1_1/X 0.627f
C22 sky130_fd_sc_hd__a21o_1_0/a_81_21# sky130_fd_sc_hd__a21o_1_1/X 0.0018f
C23 G4 sky130_fd_sc_hd__and4_1_0/X 1.98e-20
C24 P3 sky130_fd_sc_hd__a21o_1_1/a_384_47# 7.45e-20
C25 sky130_fd_sc_hd__a21o_1_2/a_384_47# VPB -4.08e-19
C26 P4 VPB 0.0594f
C27 sky130_fd_sc_hd__a21o_1_2/a_81_21# VPB -0.0132f
C28 sky130_fd_sc_hd__a21o_1_2/a_384_47# P3 0.0013f
C29 P4 P3 0.2f
C30 P3 sky130_fd_sc_hd__a21o_1_2/a_81_21# 0.0706f
C31 sky130_fd_sc_hd__a21o_1_0/X sky130_fd_sc_hd__a21o_1_0/a_299_297# 0.00259f
C32 G4 VNB 8.25e-19
C33 sky130_fd_sc_hd__a21o_1_1/a_81_21# VPB -0.00647f
C34 sky130_fd_sc_hd__a21o_1_0/a_299_297# P2 0.0456f
C35 CO P1 0.00943f
C36 sky130_fd_sc_hd__a21o_1_2/X sky130_fd_sc_hd__a21o_1_1/X 0.0261f
C37 G3 VPB -6.71e-19
C38 P1 sky130_fd_sc_hd__and4_1_0/X 0.00732f
C39 sky130_fd_sc_hd__a21o_1_2/a_384_47# P4 6.19e-21
C40 P4 sky130_fd_sc_hd__a21o_1_2/a_81_21# 0.00149f
C41 VNB G1 -0.00488f
C42 P3 G3 0.0176f
C43 sky130_fd_sc_hd__a21o_1_3/a_299_297# VPB -5.68e-32
C44 VPB sky130_fd_sc_hd__and4_1_0/a_303_47# -4.83e-19
C45 sky130_fd_sc_hd__a21o_1_1/a_299_297# sky130_fd_sc_hd__a21o_1_1/X 0.0338f
C46 VNB P1 0.0237f
C47 sky130_fd_sc_hd__a21o_1_2/X sky130_fd_sc_hd__a21o_1_0/a_299_297# 1.65e-19
C48 P4 sky130_fd_sc_hd__a21o_1_1/a_81_21# 1.01e-19
C49 P3 sky130_fd_sc_hd__and4_1_0/a_303_47# 4.7e-19
C50 CO P2 4.84e-19
C51 sky130_fd_sc_hd__a21o_1_0/X sky130_fd_sc_hd__and4_1_0/X 7.95e-21
C52 sky130_fd_sc_hd__and4_1_0/X P2 0.00135f
C53 CI VPB 0.00996f
C54 sky130_fd_sc_hd__a21o_1_1/a_81_21# G3 0.023f
C55 VNB sky130_fd_sc_hd__a21o_1_0/X 0.461f
C56 VNB P2 0.00318f
C57 sky130_fd_sc_hd__a21o_1_0/a_81_21# VNB -0.0202f
C58 sky130_fd_sc_hd__a21o_1_2/X CO 0.0504f
C59 sky130_fd_sc_hd__a21o_1_2/X sky130_fd_sc_hd__and4_1_0/X 0.132f
C60 P1 sky130_fd_sc_hd__a21o_1_3/a_81_21# 0.00196f
C61 sky130_fd_sc_hd__a21o_1_2/a_299_297# P2 0.055f
C62 sky130_fd_sc_hd__a21o_1_0/a_384_47# VPB -3.87e-19
C63 sky130_fd_sc_hd__and4_1_0/a_109_47# VPB -4.66e-19
C64 sky130_fd_sc_hd__a21o_1_2/X VNB 0.0224f
C65 G2 G1 0.0921f
C66 sky130_fd_sc_hd__and4_1_0/a_109_47# P3 0.00143f
C67 sky130_fd_sc_hd__a21o_1_0/a_299_297# sky130_fd_sc_hd__a21o_1_1/X 0.0315f
C68 sky130_fd_sc_hd__a21o_1_2/X sky130_fd_sc_hd__a21o_1_2/a_299_297# 0.0335f
C69 CI sky130_fd_sc_hd__a21o_1_3/a_299_297# 0.00978f
C70 VNB sky130_fd_sc_hd__a21o_1_1/a_299_297# -0.00449f
C71 sky130_fd_sc_hd__a21o_1_3/a_81_21# P2 6.76e-19
C72 G2 sky130_fd_sc_hd__a21o_1_0/X 0.0575f
C73 G2 P2 0.00123f
C74 sky130_fd_sc_hd__a21o_1_0/a_81_21# G2 0.0401f
C75 sky130_fd_sc_hd__a21o_1_2/X sky130_fd_sc_hd__a21o_1_3/a_81_21# 0.07f
C76 sky130_fd_sc_hd__and4_1_0/X sky130_fd_sc_hd__a21o_1_1/X 5.37e-20
C77 G4 VPB -0.00221f
C78 P3 G4 0.0694f
C79 VPB G1 0.0196f
C80 sky130_fd_sc_hd__a21o_1_2/X G2 5.09e-20
C81 VNB sky130_fd_sc_hd__a21o_1_1/X 0.0139f
C82 sky130_fd_sc_hd__and4_1_0/a_27_47# P1 0.019f
C83 G4 sky130_fd_sc_hd__a21o_1_2/a_81_21# 0.0188f
C84 VPB P1 0.00652f
C85 P4 G4 0.02f
C86 sky130_fd_sc_hd__a21o_1_2/a_299_297# sky130_fd_sc_hd__a21o_1_1/X 0.0193f
C87 P3 P1 0.0581f
C88 VNB sky130_fd_sc_hd__a21o_1_0/a_299_297# -0.00449f
C89 sky130_fd_sc_hd__and4_1_0/a_27_47# sky130_fd_sc_hd__a21o_1_0/X 2.06e-20
C90 sky130_fd_sc_hd__and4_1_0/a_27_47# P2 0.0709f
C91 CO sky130_fd_sc_hd__and4_1_0/X 0.13f
C92 VPB sky130_fd_sc_hd__a21o_1_0/X 0.0377f
C93 sky130_fd_sc_hd__a21o_1_3/a_384_47# sky130_fd_sc_hd__and4_1_0/X 7.24e-19
C94 P4 P1 4.35e-19
C95 sky130_fd_sc_hd__a21o_1_2/a_81_21# P1 3.15e-20
C96 VPB P2 0.383f
C97 sky130_fd_sc_hd__a21o_1_0/a_81_21# VPB -0.00151f
C98 P3 sky130_fd_sc_hd__a21o_1_0/X 0.0694f
C99 sky130_fd_sc_hd__and4_1_0/a_197_47# sky130_fd_sc_hd__a21o_1_0/X 5.93e-21
C100 P3 P2 0.155f
C101 sky130_fd_sc_hd__and4_1_0/a_197_47# P2 2.63e-19
C102 sky130_fd_sc_hd__a21o_1_1/a_384_47# sky130_fd_sc_hd__a21o_1_0/X 6.97e-19
C103 VNB sky130_fd_sc_hd__a21o_1_3/a_384_47# -5.85e-20
C104 CO VNB -0.00689f
C105 VNB sky130_fd_sc_hd__and4_1_0/X 0.251f
C106 sky130_fd_sc_hd__and4_1_0/a_27_47# sky130_fd_sc_hd__a21o_1_2/X 0.0588f
C107 G3 P1 3.23e-21
C108 sky130_fd_sc_hd__a21o_1_2/a_384_47# sky130_fd_sc_hd__a21o_1_0/X 1.12e-20
C109 sky130_fd_sc_hd__a21o_1_2/a_81_21# sky130_fd_sc_hd__a21o_1_0/X 1.2e-19
C110 P4 sky130_fd_sc_hd__a21o_1_0/X 5.9e-20
C111 sky130_fd_sc_hd__a21o_1_2/X VPB 1.21f
C112 sky130_fd_sc_hd__a21o_1_2/a_384_47# P2 2.47e-20
C113 P4 P2 0.197f
C114 sky130_fd_sc_hd__a21o_1_2/a_81_21# P2 0.0301f
C115 G2 sky130_fd_sc_hd__a21o_1_1/X 1.59e-19
C116 sky130_fd_sc_hd__a21o_1_3/a_299_297# P1 2.61e-19
C117 P3 sky130_fd_sc_hd__a21o_1_2/X 0.0674f
C118 sky130_fd_sc_hd__a21o_1_1/a_81_21# sky130_fd_sc_hd__a21o_1_0/X 0.0631f
C119 sky130_fd_sc_hd__a21o_1_2/X sky130_fd_sc_hd__a21o_1_1/a_384_47# 1.32e-20
C120 sky130_fd_sc_hd__a21o_1_1/a_81_21# P2 0.0526f
C121 G3 sky130_fd_sc_hd__a21o_1_0/X 0.0894f
C122 VPB sky130_fd_sc_hd__a21o_1_1/a_299_297# -0.00193f
C123 G3 P2 0.0287f
C124 CI P1 2.89e-19
C125 P4 sky130_fd_sc_hd__a21o_1_2/X 0.00977f
C126 sky130_fd_sc_hd__a21o_1_2/X sky130_fd_sc_hd__a21o_1_2/a_81_21# 0.02f
C127 VNB sky130_fd_sc_hd__a21o_1_2/a_299_297# -0.00449f
C128 P3 sky130_fd_sc_hd__a21o_1_1/a_299_297# 0.00415f
C129 CO sky130_fd_sc_hd__a21o_1_3/a_81_21# 0.00936f
C130 sky130_fd_sc_hd__a21o_1_0/X sky130_fd_sc_hd__and4_1_0/a_303_47# 5.18e-21
C131 sky130_fd_sc_hd__and4_1_0/X sky130_fd_sc_hd__a21o_1_3/a_81_21# 0.0697f
C132 sky130_fd_sc_hd__a21o_1_2/X sky130_fd_sc_hd__a21o_1_1/a_81_21# 0.00223f
C133 P4 sky130_fd_sc_hd__a21o_1_1/a_299_297# 1.23e-19
C134 sky130_fd_sc_hd__a21o_1_2/X G3 4.15e-19
C135 sky130_fd_sc_hd__a21o_1_0/a_384_47# G1 4.61e-19
C136 VNB sky130_fd_sc_hd__a21o_1_3/a_81_21# -0.0199f
C137 CI P2 2.97e-20
C138 sky130_fd_sc_hd__a21o_1_2/X sky130_fd_sc_hd__a21o_1_3/a_299_297# 0.0173f
C139 sky130_fd_sc_hd__and4_1_0/a_27_47# sky130_fd_sc_hd__a21o_1_1/X 1.67e-19
C140 sky130_fd_sc_hd__a21o_1_2/X sky130_fd_sc_hd__and4_1_0/a_303_47# 4.26e-19
C141 VPB sky130_fd_sc_hd__a21o_1_1/X 0.0255f
C142 P3 sky130_fd_sc_hd__a21o_1_1/X 0.185f
C143 VNB G2 0.00126f
C144 sky130_fd_sc_hd__a21o_1_2/X CI 0.00156f
C145 sky130_fd_sc_hd__a21o_1_1/a_384_47# sky130_fd_sc_hd__a21o_1_1/X 4.81e-19
C146 sky130_fd_sc_hd__a21o_1_0/a_384_47# sky130_fd_sc_hd__a21o_1_0/X 0.00135f
C147 sky130_fd_sc_hd__and4_1_0/a_109_47# sky130_fd_sc_hd__a21o_1_0/X 9.17e-21
C148 VPB sky130_fd_sc_hd__a21o_1_0/a_299_297# 0.00347f
C149 sky130_fd_sc_hd__and4_1_0/a_109_47# P2 2.77e-19
C150 sky130_fd_sc_hd__a21o_1_2/a_384_47# sky130_fd_sc_hd__a21o_1_1/X 7.94e-20
C151 P4 sky130_fd_sc_hd__a21o_1_1/X 0.0428f
C152 sky130_fd_sc_hd__a21o_1_2/a_81_21# sky130_fd_sc_hd__a21o_1_1/X 0.0421f
C153 sky130_fd_sc_hd__a21o_1_1/a_81_21# sky130_fd_sc_hd__a21o_1_1/X 0.0447f
C154 sky130_fd_sc_hd__and4_1_0/a_27_47# CO 0.00246f
C155 G3 sky130_fd_sc_hd__a21o_1_1/X 0.0595f
C156 G4 P1 1.7e-20
C157 sky130_fd_sc_hd__and4_1_0/a_27_47# sky130_fd_sc_hd__and4_1_0/X 0.00169f
C158 CO VPB -0.00363f
C159 VPB sky130_fd_sc_hd__a21o_1_3/a_384_47# -1.62e-19
C160 VPB sky130_fd_sc_hd__and4_1_0/X 0.0202f
C161 P3 CO 0.0012f
C162 P3 sky130_fd_sc_hd__and4_1_0/X 0.00586f
C163 sky130_fd_sc_hd__and4_1_0/a_197_47# sky130_fd_sc_hd__and4_1_0/X 1.78e-19
C164 sky130_fd_sc_hd__and4_1_0/a_27_47# VNB 0.00805f
C165 sky130_fd_sc_hd__a21o_1_1/a_384_47# sky130_fd_sc_hd__and4_1_0/X 1.46e-21
C166 VNB VPB -0.275f
C167 G4 sky130_fd_sc_hd__a21o_1_0/X 3.47e-20
C168 G4 P2 0.00574f
C169 sky130_fd_sc_hd__a21o_1_2/a_384_47# sky130_fd_sc_hd__and4_1_0/X 1.23e-20
C170 P4 sky130_fd_sc_hd__and4_1_0/X 4.68e-20
C171 sky130_fd_sc_hd__a21o_1_2/a_81_21# sky130_fd_sc_hd__and4_1_0/X 4.69e-20
C172 P3 VNB 0.543f
C173 sky130_fd_sc_hd__and4_1_0/a_197_47# VNB -4.52e-20
C174 sky130_fd_sc_hd__a21o_1_1/a_384_47# VNB -1.89e-19
C175 G1 sky130_fd_sc_hd__a21o_1_0/X 0.0691f
C176 VPB sky130_fd_sc_hd__a21o_1_2/a_299_297# 0.0196f
C177 G1 P2 0.0935f
C178 sky130_fd_sc_hd__a21o_1_0/a_81_21# G1 0.00416f
C179 sky130_fd_sc_hd__a21o_1_2/a_384_47# VNB -2.27e-19
C180 P3 sky130_fd_sc_hd__a21o_1_2/a_299_297# 0.00159f
C181 P4 VNB 0.00496f
C182 sky130_fd_sc_hd__a21o_1_2/a_81_21# VNB -0.0181f
C183 P1 sky130_fd_sc_hd__a21o_1_0/X 1.23e-20
C184 sky130_fd_sc_hd__a21o_1_2/X G4 0.00776f
C185 P1 P2 0.0215f
C186 sky130_fd_sc_hd__and4_1_0/a_27_47# sky130_fd_sc_hd__a21o_1_3/a_81_21# 0.0108f
C187 sky130_fd_sc_hd__a21o_1_0/a_384_47# sky130_fd_sc_hd__a21o_1_1/X 1.32e-20
C188 sky130_fd_sc_hd__a21o_1_3/a_299_297# sky130_fd_sc_hd__and4_1_0/X 0.00642f
C189 sky130_fd_sc_hd__a21o_1_1/a_81_21# VNB -0.0191f
C190 P4 sky130_fd_sc_hd__a21o_1_2/a_299_297# 0.0108f
C191 sky130_fd_sc_hd__a21o_1_2/X G1 4.98e-20
C192 VPB sky130_fd_sc_hd__a21o_1_3/a_81_21# -0.0123f
C193 sky130_fd_sc_hd__and4_1_0/X sky130_fd_sc_hd__and4_1_0/a_303_47# 3.17e-19
C194 G3 VNB 6.81e-19
C195 P3 sky130_fd_sc_hd__a21o_1_3/a_81_21# 2.3e-19
C196 sky130_fd_sc_hd__a21o_1_2/X P1 0.0247f
C197 sky130_fd_sc_hd__a21o_1_0/X P2 0.0752f
C198 sky130_fd_sc_hd__a21o_1_0/a_81_21# sky130_fd_sc_hd__a21o_1_0/X 0.059f
C199 sky130_fd_sc_hd__a21o_1_3/a_299_297# VNB -0.00378f
C200 sky130_fd_sc_hd__a21o_1_0/a_81_21# P2 0.00281f
C201 CI sky130_fd_sc_hd__and4_1_0/X 0.0308f
C202 VNB sky130_fd_sc_hd__and4_1_0/a_303_47# 3.12e-20
C203 VPB G2 0.0175f
C204 VNB 0 1.71f
C205 VPB 0 4.61f
C206 sky130_fd_sc_hd__and4_1_0/X 0 0.154f
C207 P1 0 0.164f
C208 P3 0 0.297f
C209 P2 0 0.31f
C210 P4 0 0.324f
C211 sky130_fd_sc_hd__and4_1_0/a_27_47# 0 0.175f
C212 CO 0 0.0276f
C213 CI 0 0.158f
C214 sky130_fd_sc_hd__a21o_1_3/a_299_297# 0 0.0348f
C215 sky130_fd_sc_hd__a21o_1_3/a_81_21# 0 0.147f
C216 sky130_fd_sc_hd__a21o_1_2/X 0 0.168f
C217 sky130_fd_sc_hd__a21o_1_1/X 0 0.129f
C218 G4 0 0.137f
C219 sky130_fd_sc_hd__a21o_1_2/a_299_297# 0 0.0348f
C220 sky130_fd_sc_hd__a21o_1_2/a_81_21# 0 0.147f
C221 sky130_fd_sc_hd__a21o_1_0/X 0 0.223f
C222 G3 0 0.137f
C223 sky130_fd_sc_hd__a21o_1_1/a_299_297# 0 0.0348f
C224 sky130_fd_sc_hd__a21o_1_1/a_81_21# 0 0.147f
C225 G1 0 0.12f
C226 G2 0 0.163f
C227 sky130_fd_sc_hd__a21o_1_0/a_299_297# 0 0.0348f
C228 sky130_fd_sc_hd__a21o_1_0/a_81_21# 0 0.147f
.ends

.subckt sky130_fd_sc_hd__xor2_1 A B VGND VNB VPB VPWR X a_117_297# a_285_297# a_285_47#
+ a_35_297#
X0 X a_35_297# a_285_297# VPB sky130_fd_pr__pfet_01v8_hvt ad=0.3 pd=2.6 as=0.177 ps=1.69 w=1 l=0.15
**devattr s=10400,504 d=12000,520
X1 X B a_285_47# VNB sky130_fd_pr__nfet_01v8 ad=0.25 pd=1.42 as=0.0878 ps=0.92 w=0.65 l=0.15
**devattr s=3510,184 d=10010,284
X2 a_35_297# B VGND VNB sky130_fd_pr__nfet_01v8 ad=0.0878 pd=0.92 as=0.138 ps=1.4 w=0.65 l=0.15
**devattr s=6760,364 d=3510,184
X3 a_117_297# B a_35_297# VPB sky130_fd_pr__pfet_01v8_hvt ad=0.135 pd=1.27 as=0.26 ps=2.52 w=1 l=0.15
**devattr s=10400,504 d=5400,254
X4 VPWR B a_285_297# VPB sky130_fd_pr__pfet_01v8_hvt ad=0.177 pd=1.69 as=0.177 ps=1.69 w=1 l=0.15
**devattr s=5400,254 d=10400,504
X5 VGND A a_35_297# VNB sky130_fd_pr__nfet_01v8 ad=0.138 pd=1.4 as=0.0878 ps=0.92 w=0.65 l=0.15
**devattr s=3510,184 d=3510,184
X6 VGND a_35_297# X VNB sky130_fd_pr__nfet_01v8 ad=0.138 pd=1.4 as=0.25 ps=1.42 w=0.65 l=0.15
**devattr s=10010,284 d=8320,388
X7 a_285_297# A VPWR VPB sky130_fd_pr__pfet_01v8_hvt ad=0.177 pd=1.69 as=0.177 ps=1.69 w=1 l=0.15
**devattr s=5400,254 d=5400,254
X8 VPWR A a_117_297# VPB sky130_fd_pr__pfet_01v8_hvt ad=0.177 pd=1.69 as=0.135 ps=1.27 w=1 l=0.15
**devattr s=5400,254 d=5400,254
X9 a_285_47# A VGND VNB sky130_fd_pr__nfet_01v8 ad=0.0878 pd=0.92 as=0.138 ps=1.4 w=0.65 l=0.15
**devattr s=3510,184 d=3510,184
C0 a_285_297# VPB 0.0133f
C1 a_117_297# X 2.25e-19
C2 VGND VPB 0.00696f
C3 B VPB 0.0697f
C4 a_35_297# A 0.0633f
C5 a_35_297# a_285_297# 0.025f
C6 a_35_297# VGND 0.177f
C7 a_35_297# B 0.203f
C8 a_35_297# VPB 0.0699f
C9 a_285_47# VGND 0.00552f
C10 X VPWR 0.0537f
C11 a_285_47# B 3.98e-19
C12 a_117_297# VGND 0.00177f
C13 a_117_297# B 0.00777f
C14 a_35_297# a_285_47# 0.00723f
C15 A VPWR 0.0348f
C16 a_285_297# VPWR 0.246f
C17 a_117_297# a_35_297# 0.00641f
C18 VGND VPWR 0.0643f
C19 B VPWR 0.0703f
C20 A X 0.00166f
C21 a_285_297# X 0.0712f
C22 VPWR VPB 0.0689f
C23 X VGND 0.173f
C24 X B 0.0149f
C25 a_35_297# VPWR 0.096f
C26 X VPB 0.0154f
C27 a_285_47# VPWR 8.6e-19
C28 a_35_297# X 0.166f
C29 a_285_297# A 0.00749f
C30 A VGND 0.0325f
C31 A B 0.221f
C32 a_285_297# VGND 0.00394f
C33 a_285_297# B 0.0553f
C34 a_117_297# VPWR 0.00852f
C35 X a_285_47# 0.00206f
C36 VGND B 0.0304f
C37 A VPB 0.051f
C38 VGND VNB 0.435f
C39 X VNB 0.0649f
C40 VPWR VNB 0.333f
C41 A VNB 0.167f
C42 B VNB 0.213f
C43 VPB VNB 0.693f
C44 a_285_297# VNB 0.00137f
C45 a_35_297# VNB 0.255f
.ends

.subckt adder_3 G1 P2 G2 G3 P4 S1 S2 S3 S4 sky130_fd_sc_hd__xor2_1_3/a_117_297# sky130_fd_sc_hd__xor2_1_3/a_35_297#
+ sky130_fd_sc_hd__a21o_1_0/a_81_21# sky130_fd_sc_hd__xor2_1_3/a_285_47# sky130_fd_sc_hd__xor2_1_0/a_285_297#
+ sky130_fd_sc_hd__a21o_1_0/a_384_47# sky130_fd_sc_hd__xor2_1_1/a_285_297# sky130_fd_sc_hd__xor2_1_0/a_35_297#
+ sky130_fd_sc_hd__xor2_1_0/a_285_47# sky130_fd_sc_hd__a21o_1_1/a_81_21# sky130_fd_sc_hd__a21o_1_0/a_299_297#
+ sky130_fd_sc_hd__xor2_1_2/a_285_297# sky130_fd_sc_hd__xor2_1_3/a_285_297# sky130_fd_sc_hd__a21o_1_1/a_299_297#
+ sky130_fd_sc_hd__a21o_1_2/a_299_297# sky130_fd_sc_hd__xor2_1_1/a_35_297# sky130_fd_sc_hd__xor2_1_3/B
+ sky130_fd_sc_hd__xor2_1_1/a_285_47# sky130_fd_sc_hd__xor2_1_1/B sky130_fd_sc_hd__a21o_1_2/a_81_21#
+ sky130_fd_sc_hd__xor2_1_0/a_117_297# sky130_fd_sc_hd__xor2_1_2/a_35_297# sky130_fd_sc_hd__xor2_1_2/a_285_47#
+ sky130_fd_sc_hd__xor2_1_1/a_117_297# CI P1 SUB sky130_fd_sc_hd__xor2_1_2/B sky130_fd_sc_hd__xor2_1_2/a_117_297#
+ VPB P3
Xsky130_fd_sc_hd__xor2_1_3 P4 sky130_fd_sc_hd__xor2_1_3/B SUB SUB VPB VPB S4 sky130_fd_sc_hd__xor2_1_3/a_117_297#
+ sky130_fd_sc_hd__xor2_1_3/a_285_297# sky130_fd_sc_hd__xor2_1_3/a_285_47# sky130_fd_sc_hd__xor2_1_3/a_35_297#
+ sky130_fd_sc_hd__xor2_1
Xsky130_fd_sc_hd__a21o_1_0 CI P1 G1 SUB SUB VPB VPB sky130_fd_sc_hd__xor2_1_1/B sky130_fd_sc_hd__a21o_1_0/a_384_47#
+ sky130_fd_sc_hd__a21o_1_0/a_81_21# sky130_fd_sc_hd__a21o_1_0/a_299_297# sky130_fd_sc_hd__a21o_1
Xsky130_fd_sc_hd__a21o_1_1 sky130_fd_sc_hd__xor2_1_1/B P2 G2 SUB SUB VPB VPB sky130_fd_sc_hd__xor2_1_2/B
+ sky130_fd_sc_hd__a21o_1_1/a_384_47# sky130_fd_sc_hd__a21o_1_1/a_81_21# sky130_fd_sc_hd__a21o_1_1/a_299_297#
+ sky130_fd_sc_hd__a21o_1
Xsky130_fd_sc_hd__a21o_1_2 sky130_fd_sc_hd__xor2_1_2/B P3 G3 SUB SUB VPB VPB sky130_fd_sc_hd__xor2_1_3/B
+ sky130_fd_sc_hd__a21o_1_2/a_384_47# sky130_fd_sc_hd__a21o_1_2/a_81_21# sky130_fd_sc_hd__a21o_1_2/a_299_297#
+ sky130_fd_sc_hd__a21o_1
Xsky130_fd_sc_hd__xor2_1_0 P1 CI SUB SUB VPB VPB S1 sky130_fd_sc_hd__xor2_1_0/a_117_297#
+ sky130_fd_sc_hd__xor2_1_0/a_285_297# sky130_fd_sc_hd__xor2_1_0/a_285_47# sky130_fd_sc_hd__xor2_1_0/a_35_297#
+ sky130_fd_sc_hd__xor2_1
Xsky130_fd_sc_hd__xor2_1_1 P2 sky130_fd_sc_hd__xor2_1_1/B SUB SUB VPB VPB S2 sky130_fd_sc_hd__xor2_1_1/a_117_297#
+ sky130_fd_sc_hd__xor2_1_1/a_285_297# sky130_fd_sc_hd__xor2_1_1/a_285_47# sky130_fd_sc_hd__xor2_1_1/a_35_297#
+ sky130_fd_sc_hd__xor2_1
Xsky130_fd_sc_hd__xor2_1_2 P3 sky130_fd_sc_hd__xor2_1_2/B SUB SUB VPB VPB S3 sky130_fd_sc_hd__xor2_1_2/a_117_297#
+ sky130_fd_sc_hd__xor2_1_2/a_285_297# sky130_fd_sc_hd__xor2_1_2/a_285_47# sky130_fd_sc_hd__xor2_1_2/a_35_297#
+ sky130_fd_sc_hd__xor2_1
C0 P2 G3 0.0223f
C1 VPB sky130_fd_sc_hd__xor2_1_2/a_285_297# 2.35e-20
C2 S3 sky130_fd_sc_hd__xor2_1_2/a_117_297# 6.67e-19
C3 sky130_fd_sc_hd__xor2_1_1/a_35_297# sky130_fd_sc_hd__xor2_1_2/B 0.0151f
C4 S3 sky130_fd_sc_hd__xor2_1_3/a_35_297# 0.0518f
C5 sky130_fd_sc_hd__a21o_1_2/a_299_297# S1 3.56e-19
C6 P2 SUB 0.384f
C7 sky130_fd_sc_hd__xor2_1_0/a_285_47# P1 0.00118f
C8 sky130_fd_sc_hd__a21o_1_2/a_384_47# sky130_fd_sc_hd__xor2_1_2/B 0.00105f
C9 S2 sky130_fd_sc_hd__xor2_1_1/a_285_297# 0.00293f
C10 sky130_fd_sc_hd__xor2_1_3/a_285_47# sky130_fd_sc_hd__xor2_1_3/B 3.65e-19
C11 S3 sky130_fd_sc_hd__xor2_1_1/a_35_297# 3.35e-20
C12 sky130_fd_sc_hd__xor2_1_1/B sky130_fd_sc_hd__a21o_1_0/a_384_47# 3.85e-19
C13 sky130_fd_sc_hd__xor2_1_1/B sky130_fd_sc_hd__a21o_1_1/a_384_47# 0.00123f
C14 G3 sky130_fd_sc_hd__xor2_1_3/B 0.0517f
C15 sky130_fd_sc_hd__xor2_1_1/a_35_297# P1 0.00101f
C16 sky130_fd_sc_hd__xor2_1_1/B VPB 0.743f
C17 P3 S1 2.04e-19
C18 sky130_fd_sc_hd__xor2_1_3/B SUB 1.3f
C19 CI S1 0.002f
C20 P2 sky130_fd_sc_hd__xor2_1_3/B 0.107f
C21 sky130_fd_sc_hd__a21o_1_2/a_81_21# S1 2.24e-19
C22 VPB sky130_fd_sc_hd__xor2_1_0/a_117_297# -2.04e-19
C23 P4 P3 4.73e-19
C24 sky130_fd_sc_hd__xor2_1_2/a_35_297# S2 0.0515f
C25 sky130_fd_sc_hd__xor2_1_3/a_117_297# S4 6.67e-19
C26 G3 sky130_fd_sc_hd__xor2_1_2/B 0.0811f
C27 sky130_fd_sc_hd__xor2_1_2/a_285_297# S2 0.00111f
C28 sky130_fd_sc_hd__a21o_1_1/a_299_297# S1 8.32e-20
C29 SUB sky130_fd_sc_hd__xor2_1_2/B 0.233f
C30 P2 sky130_fd_sc_hd__xor2_1_2/B 0.163f
C31 sky130_fd_sc_hd__xor2_1_1/B G2 0.13f
C32 G3 P1 6.62e-19
C33 S3 SUB -0.00162f
C34 sky130_fd_sc_hd__a21o_1_0/a_299_297# SUB -0.00435f
C35 S3 P2 2.48e-20
C36 sky130_fd_sc_hd__xor2_1_0/a_35_297# P3 0.00793f
C37 sky130_fd_sc_hd__xor2_1_1/B S2 0.00554f
C38 P1 SUB 1f
C39 sky130_fd_sc_hd__xor2_1_3/a_35_297# sky130_fd_sc_hd__xor2_1_2/a_35_297# 0.00123f
C40 CI sky130_fd_sc_hd__xor2_1_0/a_35_297# 0.0235f
C41 sky130_fd_sc_hd__xor2_1_3/B sky130_fd_sc_hd__xor2_1_2/B 0.171f
C42 sky130_fd_sc_hd__a21o_1_2/a_81_21# sky130_fd_sc_hd__xor2_1_0/a_35_297# 0.00109f
C43 P2 P1 0.6f
C44 VPB sky130_fd_sc_hd__a21o_1_2/a_299_297# 0.0344f
C45 sky130_fd_sc_hd__xor2_1_1/a_35_297# sky130_fd_sc_hd__xor2_1_2/a_35_297# 0.00123f
C46 S3 sky130_fd_sc_hd__xor2_1_3/B 0.0617f
C47 VPB sky130_fd_sc_hd__xor2_1_2/a_285_47# -7.24e-19
C48 CI sky130_fd_sc_hd__a21o_1_0/a_384_47# 0.00162f
C49 sky130_fd_sc_hd__xor2_1_3/B P1 0.0733f
C50 VPB P3 0.0315f
C51 P4 S4 0.00239f
C52 sky130_fd_sc_hd__xor2_1_3/a_285_297# S4 0.00453f
C53 sky130_fd_sc_hd__xor2_1_1/B sky130_fd_sc_hd__xor2_1_0/a_285_47# 2.47e-19
C54 VPB CI 0.00219f
C55 VPB sky130_fd_sc_hd__a21o_1_2/a_81_21# -0.00306f
C56 SUB sky130_fd_sc_hd__xor2_1_1/a_285_297# -0.00394f
C57 S3 sky130_fd_sc_hd__xor2_1_2/B 0.00532f
C58 sky130_fd_sc_hd__a21o_1_0/a_299_297# sky130_fd_sc_hd__xor2_1_2/B 0.0414f
C59 sky130_fd_sc_hd__xor2_1_1/B sky130_fd_sc_hd__xor2_1_3/a_35_297# 5.05e-21
C60 VPB sky130_fd_sc_hd__a21o_1_0/a_81_21# -0.00793f
C61 sky130_fd_sc_hd__xor2_1_1/B sky130_fd_sc_hd__xor2_1_1/a_35_297# 0.0394f
C62 P1 sky130_fd_sc_hd__xor2_1_2/B 0.183f
C63 VPB sky130_fd_sc_hd__a21o_1_1/a_299_297# 0.0016f
C64 sky130_fd_sc_hd__xor2_1_1/B sky130_fd_sc_hd__a21o_1_2/a_384_47# 2.81e-20
C65 sky130_fd_sc_hd__a21o_1_0/a_299_297# P1 0.00669f
C66 sky130_fd_sc_hd__xor2_1_3/B sky130_fd_sc_hd__xor2_1_1/a_285_297# 0.00704f
C67 sky130_fd_sc_hd__xor2_1_2/a_35_297# SUB -0.0113f
C68 P2 sky130_fd_sc_hd__xor2_1_2/a_35_297# 6.69e-19
C69 CI G2 2.73e-19
C70 sky130_fd_sc_hd__xor2_1_2/a_285_297# SUB -0.00394f
C71 S2 P3 0.00112f
C72 sky130_fd_sc_hd__a21o_1_0/a_81_21# G2 1.77e-20
C73 VPB sky130_fd_sc_hd__a21o_1_1/a_81_21# -0.00424f
C74 sky130_fd_sc_hd__xor2_1_1/B G3 0.0538f
C75 sky130_fd_sc_hd__xor2_1_3/B sky130_fd_sc_hd__xor2_1_2/a_35_297# 0.0908f
C76 VPB G1 0.00163f
C77 S3 sky130_fd_sc_hd__xor2_1_1/a_285_297# 8.64e-20
C78 VPB S4 0.0296f
C79 sky130_fd_sc_hd__xor2_1_2/a_285_297# sky130_fd_sc_hd__xor2_1_3/B 0.00704f
C80 sky130_fd_sc_hd__xor2_1_1/B SUB 0.137f
C81 sky130_fd_sc_hd__xor2_1_1/B P2 0.223f
C82 sky130_fd_sc_hd__xor2_1_2/a_35_297# sky130_fd_sc_hd__xor2_1_2/B 0.0262f
C83 SUB sky130_fd_sc_hd__xor2_1_0/a_117_297# -0.00177f
C84 sky130_fd_sc_hd__xor2_1_3/a_35_297# P3 0.00203f
C85 G2 sky130_fd_sc_hd__a21o_1_1/a_81_21# 0.0275f
C86 S3 sky130_fd_sc_hd__xor2_1_2/a_35_297# 0.00495f
C87 sky130_fd_sc_hd__xor2_1_1/a_35_297# P3 2.02e-19
C88 sky130_fd_sc_hd__xor2_1_1/B sky130_fd_sc_hd__xor2_1_3/B 0.398f
C89 G1 G2 1.42e-20
C90 CI sky130_fd_sc_hd__xor2_1_1/a_35_297# 7.26e-21
C91 S3 sky130_fd_sc_hd__xor2_1_2/a_285_297# 0.00453f
C92 sky130_fd_sc_hd__a21o_1_2/a_384_47# P3 5.7e-19
C93 VPB sky130_fd_sc_hd__xor2_1_3/a_117_297# 2.25e-20
C94 sky130_fd_sc_hd__xor2_1_1/B sky130_fd_sc_hd__xor2_1_2/B 0.161f
C95 VPB sky130_fd_sc_hd__xor2_1_1/a_285_47# -7.24e-19
C96 sky130_fd_sc_hd__xor2_1_3/a_285_47# P3 3.53e-19
C97 sky130_fd_sc_hd__xor2_1_0/a_285_297# S1 0.00385f
C98 sky130_fd_sc_hd__xor2_1_1/B S3 3.34e-20
C99 sky130_fd_sc_hd__xor2_1_0/a_117_297# sky130_fd_sc_hd__xor2_1_2/B 2.27e-19
C100 sky130_fd_sc_hd__xor2_1_1/B sky130_fd_sc_hd__a21o_1_0/a_299_297# 0.0526f
C101 sky130_fd_sc_hd__a21o_1_2/a_299_297# SUB -0.00449f
C102 sky130_fd_sc_hd__xor2_1_0/a_35_297# S1 0.00396f
C103 sky130_fd_sc_hd__xor2_1_1/a_117_297# S1 0.00102f
C104 sky130_fd_sc_hd__xor2_1_2/a_285_47# SUB -4.65e-19
C105 sky130_fd_sc_hd__xor2_1_1/B P1 0.132f
C106 CI G3 2.35e-19
C107 G3 sky130_fd_sc_hd__a21o_1_2/a_81_21# 0.0232f
C108 SUB P3 0.27f
C109 P2 P3 0.608f
C110 sky130_fd_sc_hd__a21o_1_2/a_299_297# sky130_fd_sc_hd__xor2_1_3/B 6.06e-19
C111 CI SUB 0.176f
C112 sky130_fd_sc_hd__xor2_1_3/a_35_297# S4 0.00521f
C113 sky130_fd_sc_hd__a21o_1_2/a_81_21# SUB -0.0181f
C114 CI P2 0.186f
C115 P2 sky130_fd_sc_hd__a21o_1_2/a_81_21# 0.0197f
C116 sky130_fd_sc_hd__xor2_1_2/a_285_47# sky130_fd_sc_hd__xor2_1_3/B 0.00259f
C117 sky130_fd_sc_hd__a21o_1_0/a_81_21# SUB -0.00347f
C118 VPB S1 0.0368f
C119 sky130_fd_sc_hd__a21o_1_1/a_299_297# SUB -0.00436f
C120 sky130_fd_sc_hd__xor2_1_3/B P3 0.159f
C121 P2 sky130_fd_sc_hd__a21o_1_1/a_299_297# 0.00664f
C122 sky130_fd_sc_hd__a21o_1_2/a_299_297# sky130_fd_sc_hd__xor2_1_2/B 0.00554f
C123 CI sky130_fd_sc_hd__xor2_1_3/B 0.0784f
C124 VPB P4 0.0224f
C125 sky130_fd_sc_hd__xor2_1_3/B sky130_fd_sc_hd__a21o_1_2/a_81_21# 0.0563f
C126 sky130_fd_sc_hd__a21o_1_0/a_81_21# sky130_fd_sc_hd__xor2_1_3/B 1.96e-19
C127 P3 sky130_fd_sc_hd__xor2_1_2/B 0.902f
C128 sky130_fd_sc_hd__xor2_1_3/B sky130_fd_sc_hd__a21o_1_1/a_299_297# 0.0322f
C129 CI sky130_fd_sc_hd__xor2_1_2/B 0.818f
C130 sky130_fd_sc_hd__xor2_1_1/B sky130_fd_sc_hd__xor2_1_2/a_35_297# 6.93e-20
C131 sky130_fd_sc_hd__a21o_1_2/a_81_21# sky130_fd_sc_hd__xor2_1_2/B 0.0116f
C132 VPB sky130_fd_sc_hd__xor2_1_0/a_285_297# -3.91e-19
C133 SUB sky130_fd_sc_hd__a21o_1_1/a_81_21# -0.00243f
C134 S3 P3 0.00706f
C135 P2 sky130_fd_sc_hd__a21o_1_1/a_81_21# 0.00611f
C136 G1 SUB 0.023f
C137 VPB sky130_fd_sc_hd__xor2_1_0/a_35_297# 0.042f
C138 sky130_fd_sc_hd__a21o_1_0/a_81_21# sky130_fd_sc_hd__xor2_1_2/B 0.00447f
C139 VPB sky130_fd_sc_hd__xor2_1_1/a_117_297# 2.29e-20
C140 sky130_fd_sc_hd__a21o_1_0/a_299_297# CI 0.00517f
C141 SUB S4 0.0195f